@<TRIPOS>MOLECULE
tmp/2dtsA00.pdb
 115 106 0 0 0
SMALL
GASTEIGER

@<TRIPOS>ATOM
      1  N          9.4050    8.7910   67.8370 N.3     6  SER6       -0.1217
      2  CA         9.5920    7.8950   66.7620 C.3     6  SER6        0.1889
      3  C         10.2710    8.7050   65.7600 C.2     6  SER6        0.2288
      4  O          9.9810    9.8600   65.6840 O.2     6  SER6       -0.2866
      5  CB         8.2630    7.4340   66.1560 C.3     6  SER6        0.2089
      6  OG         7.5060    6.5110   66.9260 O.3     6  SER6       -0.2183
      7  N         11.3350    9.3540   61.6420 N.3     8  PHE8       -0.1241
      8  CA        11.1530    9.0610   60.2130 C.3     8  PHE8        0.1605
      9  C         12.0780    9.8830   59.4400 C.2     8  PHE8        0.2264
     10  O         12.2170   11.0710   59.6470 O.2     8  PHE8       -0.2867
     11  CB         9.6950    9.2960   59.7490 C.3     8  PHE8        0.0534
     12  CG         8.7080    8.4950   60.5270 C.ar    8  PHE8       -0.0203
     13  CD1        8.5570    7.1540   60.2520 C.ar    8  PHE8       -0.0042
     14  CD2        8.0840    9.0330   61.6410 C.ar    8  PHE8       -0.0042
     15  CE1        7.7180    6.3780   61.0210 C.ar    8  PHE8       -0.0003
     16  CE2        7.2590    8.2550   62.4030 C.ar    8  PHE8       -0.0003
     17  CZ         7.0570    6.9280   62.0410 C.ar    8  PHE8       -0.0000
     18  N         13.3250   10.7750   55.5820 N.3    10  PHE10      -0.1228
     19  CA        12.6720   10.8100   54.2330 C.3    10  PHE10       0.1721
     20  C         13.6570   11.1690   53.1790 C.2    10  PHE10       0.2437
     21  O         14.4980   11.9560   53.4470 O.2    10  PHE10      -0.2733
     22  CB        11.6700   11.9130   54.2820 C.3    10  PHE10       0.0547
     23  CG        10.5300   11.6170   55.1170 C.ar   10  PHE10      -0.0202
     24  CD1       10.4330   12.1320   56.4230 C.ar   10  PHE10      -0.0042
     25  CD2        9.5450   10.8460   54.6240 C.ar   10  PHE10      -0.0042
     26  CE1        9.3660   11.9600   57.1660 C.ar   10  PHE10      -0.0003
     27  CE2        8.4530   10.6260   55.4130 C.ar   10  PHE10      -0.0003
     28  CZ         8.3970   11.1280   56.6930 C.ar   10  PHE10      -0.0000
     29  N         13.6090   10.5030   52.0050 N.am   11  PRO11      -0.2729
     30  CA        14.6260   10.7380   50.9800 C.3    11  PRO11       0.1401
     31  C         14.3230   12.0020   50.1810 C.2    11  PRO11       0.2269
     32  O         13.2400   12.5720   50.3250 O.2    11  PRO11      -0.2865
     33  CB        14.5040    9.4850   50.1110 C.3    11  PRO11       0.0296
     34  CG        12.9640    9.0990   50.2470 C.3    11  PRO11       0.0237
     35  CD        12.6580    9.4300   51.6530 C.3    11  PRO11       0.0939
     36  N         13.3160   14.0230   46.7700 N.3    13  LYS13      -0.1245
     37  CA        12.3580   13.7480   45.7440 C.3    13  LYS13       0.1561
     38  C         13.1900   13.3400   44.5470 C.2    13  LYS13       0.2260
     39  O         14.2530   13.8360   44.3340 O.2    13  LYS13      -0.2867
     40  CB        11.4830   14.9580   45.4590 C.3    13  LYS13       0.0271
     41  CG        10.7550   15.4660   46.8340 C.3    13  LYS13       0.0035
     42  CD         9.6120   14.4580   47.1860 C.3    13  LYS13       0.0206
     43  CE         8.6890   14.9080   48.3530 C.3    13  LYS13       0.1093
     44  NZ         9.6480   15.4570   49.3980 N.3    13  LYS13      -0.1314
     45  N         15.1730   14.4790   55.0280 N.3    27  THR27      -0.1218
     46  CA        14.4350   15.0520   56.1310 C.3    27  THR27       0.1862
     47  C         14.2720   14.0780   57.2980 C.2    27  THR27       0.2287
     48  O         13.7470   13.0390   57.1520 O.2    27  THR27      -0.2866
     49  CB        13.1110   15.6110   55.6550 C.3    27  THR27       0.1770
     50  OG1       13.4320   16.4560   54.5550 O.3    27  THR27      -0.2211
     51  CG2       12.4330   16.4440   56.6750 C.3    27  THR27       0.0375
     52  N         12.5490   13.4670   60.8240 N.3    29  VAL29      -0.1245
     53  CA        11.3520   13.9250   61.5390 C.3    29  VAL29       0.1561
     54  C         11.1630   13.1070   62.8090 C.2    29  VAL29       0.2260
     55  O         11.0040   11.9150   62.7380 O.2    29  VAL29      -0.2867
     56  CB        10.0530   13.8100   60.7200 C.3    29  VAL29       0.0252
     57  CG1        8.8870   14.4200   61.6960 C.3    29  VAL29       0.0019
     58  CG2       10.1020   14.6880   59.3600 C.3    29  VAL29       0.0019
     59  N          8.5830   12.5680   66.0360 N.3    31  VAL31      -0.1231
     60  CA         7.3090   12.7600   66.6250 C.3    31  VAL31       0.1692
     61  C          7.2570   12.0850   68.0180 C.2    31  VAL31       0.2592
     62  O          8.1430   11.4120   68.3670 O.2    31  VAL31      -0.2718
     63  CB         6.1900   12.2010   65.7490 C.3    31  VAL31       0.0266
     64  CG1        6.1950   12.9170   64.3400 C.3    31  VAL31       0.0020
     65  CG2        6.3230   10.7020   65.5530 C.3    31  VAL31       0.0020
     66  N          6.1900   12.3500   68.7430 N.am   32  ASP32      -0.1974
     67  CA         5.9210   11.9060   70.0800 C.3    32  ASP32       0.1709
     68  C          7.0320   12.2250   71.0470 C.2    32  ASP32       0.2293
     69  O          7.3250   11.4530   71.9380 O.2    32  ASP32      -0.2864
     70  CB         5.4450   10.4570   70.1450 C.3    32  ASP32       0.1436
     71  CG         4.2070   10.2510   69.3240 C.2    32  ASP32       0.3671
     72  OD1        4.0540    9.1310   68.8050 O.co2  32  ASP32      -0.2456
     73  OD2        3.4190   11.2370   69.1480 O.co2  32  ASP32      -0.2456
     74  N          2.0520   20.0230   69.3080 N.3    62  GLN62      -0.1245
     75  CA         0.9720   19.3410   68.6260 C.3    62  GLN62       0.1566
     76  C         -0.1540   19.2630   69.5420 C.2    62  GLN62       0.2260
     77  O          0.0150   19.3550   70.7390 O.2    62  GLN62      -0.2867
     78  CB         1.3460   17.8910   68.2930 C.3    62  GLN62       0.0367
     79  CG         2.6360   17.7580   67.4920 C.3    62  GLN62       0.0905
     80  CD         2.5060   18.4030   66.0570 C.2    62  GLN62       0.2608
     81  OE1        1.4500   18.1400   65.4000 O.2    62  GLN62      -0.2717
     82  NE2        3.3620   19.1660   65.6310 N.am   62  GLN62      -0.0878
     83  N         -1.9430   16.7090   70.3600 N.3    64  ASN64      -0.1240
     84  CA        -2.0660   15.5540   71.2440 C.3    64  ASN64       0.1653
     85  C         -1.0170   15.6140   72.2910 C.2    64  ASN64       0.2266
     86  O         -0.4910   14.5940   72.6670 O.2    64  ASN64      -0.2867
     87  CB        -1.9280   14.2740   70.4450 C.3    64  ASN64       0.1155
     88  CG        -0.7930   14.3020   69.5770 C.2    64  ASN64       0.2627
     89  OD1        0.1010   15.1470   69.7820 O.2    64  ASN64      -0.2716
     90  ND2       -0.8520   13.4570   68.4470 N.am   64  ASN64      -0.0877
     91  N          2.3330   16.5410   72.3200 N.3    66  THR66      -0.1218
     92  CA         3.6330   16.0300   72.0850 C.3    66  THR66       0.1862
     93  C          4.2760   17.1140   71.3100 C.2    66  THR66       0.2287
     94  O          3.5710   18.0020   70.7650 O.2    66  THR66      -0.2866
     95  CB         3.5850   14.7510   71.1990 C.3    66  THR66       0.1770
     96  OG1        2.8020   15.0250   70.0280 O.3    66  THR66      -0.2211
     97  CG2        2.9600   13.5710   71.9690 C.3    66  THR66       0.0375
     98  N          6.9270   17.6770   67.8050 N.3    68  ARG68      -0.1245
     99  CA         7.4300   17.1790   66.5010 C.3    68  ARG68       0.1563
    100  C          8.5770   18.0820   66.2150 C.2    68  ARG68       0.2260
    101  O          8.4540   19.3090   66.3920 O.2    68  ARG68      -0.2867
    102  CB         6.4270   17.4210   65.4450 C.3    68  ARG68       0.0307
    103  CG         6.8530   17.0260   64.0450 C.3    68  ARG68       0.0489
    104  CD         5.6550   17.1070   63.1740 C.3    68  ARG68       0.2205
    105  NE         5.9410   16.7320   61.7620 N.pl3  68  ARG68      -0.0865
    106  CZ         6.3470   17.5740   60.8110 C.cat  68  ARG68       0.5346
    107  NH1        6.6380   18.8410   61.0600 N.pl3  68  ARG68       0.1354
    108  NH2        6.4960   17.1410   59.5850 N.pl3  68  ARG68       0.1354
    109  N         11.8680   18.5590   63.2710 N.3    70  VAL70      -0.1245
    110  CA        12.4200   18.2810   62.0010 C.3    70  VAL70       0.1561
    111  C         13.7590   19.0340   61.7030 C.2    70  VAL70       0.2260
    112  O         13.9200   20.2680   61.9770 O.2    70  VAL70      -0.2867
    113  CB        11.2600   18.2580   60.8820 C.3    70  VAL70       0.0252
    114  CG1        9.9300   18.7620   61.3540 C.3    70  VAL70       0.0019
    115  CG2       11.6670   18.6840   59.4430 C.3    70  VAL70       0.0019
@<TRIPOS>BOND
     1    39    38    2
     2    38    37    1
     3    40    37    1
     4    40    41    1
     5    37    36    1
     6    41    42    1
     7    42    43    1
     8    43    44    1
     9    33    34    1
    10    33    30    1
    11    31    32    2
    12    31    30    1
    13    34    35    1
    14    30    29    1
    15    35    29    1
    16    29    20   am
    17    20    21    2
    18    20    19    1
    19    19    22    1
    20    19    18    1
    21    22    23    1
    22    50    49    1
    23    25    23   ar
    24    25    27   ar
    25    45    46    1
    26    23    24   ar
    27    27    28   ar
    28    49    46    1
    29    49    51    1
    30    46    47    1
    31    24    26   ar
    32    28    26   ar
    33    48    47    2
    34    58    56    1
    35     9    10    2
    36     9     8    1
    37   115   113    1
    38   108   106    1
    39    11     8    1
    40    11    12    1
    41     8     7    1
    42    13    12   ar
    43    13    15   ar
    44    12    14   ar
    45    56    53    1
    46    56    57    1
    47   106   107    1
    48   106   105    2
    49    52    53    1
    50   113   114    1
    51   113   110    1
    52    15    17   ar
    53    53    54    1
    54    14    16   ar
    55   111   112    2
    56   111   110    1
    57   105   104    1
    58   110   109    1
    59    17    16   ar
    60    55    54    2
    61   104   103    1
    62   103   102    1
    63    64    63    1
    64    81    80    2
    65   102    99    1
    66    65    63    1
    67    82    80   am
    68     4     3    2
    69    63    60    1
    70     3     2    1
    71    59    60    1
    72    80    79    1
    73     5     2    1
    74     5     6    1
    75   100   101    2
    76   100    99    1
    77    99    98    1
    78    60    61    1
    79     2     1    1
    80    79    78    1
    81    61    62    2
    82    61    66   am
    83    78    75    1
    84    90    88   am
    85    75    74    1
    86    75    76    1
    87    66    67    1
    88    72    71   ar
    89    73    71   ar
    90    71    70    1
    91    76    77    2
    92    88    89    2
    93    88    87    1
    94    96    95    1
    95    67    70    1
    96    67    68    1
    97    83    84    1
    98    87    84    1
    99    94    93    2
   100    68    69    2
   101    95    97    1
   102    95    92    1
   103    84    85    1
   104    93    92    1
   105    92    91    1
   106    85    86    2
