@<TRIPOS>MOLECULE
tmp/2dtsB00.pdb
 106 100 0 0 0
SMALL
GASTEIGER

@<TRIPOS>ATOM
      1  N          0.0190   -6.1050   68.5110 N.3     3  SER3       -0.1217
      2  CA        -0.6700   -5.2520   67.5320 C.3     3  SER3        0.1889
      3  C         -1.6100   -6.1750   66.8040 C.2     3  SER3        0.2288
      4  O         -1.3550   -7.3900   66.7380 O.2     3  SER3       -0.2866
      5  CB         0.3140   -4.5770   66.5440 C.3     3  SER3        0.2089
      6  OG         1.3090   -3.7970   67.1870 O.3     3  SER3       -0.2183
      7  N         -3.8170   -6.6000   63.1100 N.3     5  PHE5       -0.1241
      8  CA        -3.9990   -6.1240   61.7590 C.3     5  PHE5        0.1605
      9  C         -5.1130   -6.9650   61.1830 C.2     5  PHE5        0.2264
     10  O         -5.0650   -8.1680   61.3090 O.2     5  PHE5       -0.2867
     11  CB        -2.6990   -6.2120   60.9700 C.3     5  PHE5        0.0534
     12  CG        -1.6120   -5.3480   61.5220 C.ar    5  PHE5       -0.0203
     13  CD1       -1.6040   -3.9920   61.2650 C.ar    5  PHE5       -0.0042
     14  CD2       -0.6120   -5.8880   62.3230 C.ar    5  PHE5       -0.0042
     15  CE1       -0.6370   -3.1850   61.7920 C.ar    5  PHE5       -0.0003
     16  CE2        0.3740   -5.1070   62.7990 C.ar    5  PHE5       -0.0003
     17  CZ         0.3530   -3.7280   62.5320 C.ar    5  PHE5       -0.0000
     18  N         -7.6590   -7.8480   57.7710 N.3     7  PHE7       -0.1241
     19  CA        -7.3980   -7.8830   56.3130 C.3     7  PHE7        0.1605
     20  C         -8.5960   -8.3430   55.6150 C.2     7  PHE7        0.2264
     21  O         -9.2550   -9.2250   56.1030 O.2     7  PHE7       -0.2867
     22  CB        -6.3140   -8.9090   55.9220 C.3     7  PHE7        0.0534
     23  CG        -4.9320   -8.5290   56.4040 C.ar    7  PHE7       -0.0203
     24  CD1       -4.2040   -7.5680   55.7480 C.ar    7  PHE7       -0.0042
     25  CD2       -4.4370   -9.0270   57.5960 C.ar    7  PHE7       -0.0042
     26  CE1       -2.9560   -7.1910   56.1890 C.ar    7  PHE7       -0.0003
     27  CE2       -3.1650   -8.6350   58.0730 C.ar    7  PHE7       -0.0003
     28  CZ        -2.4200   -7.7090   57.3470 C.ar    7  PHE7       -0.0000
     29  N         -5.0400  -10.8150   62.2000 N.3    26  VAL26      -0.1245
     30  CA        -3.6550  -11.1770   62.5040 C.3    26  VAL26       0.1561
     31  C         -3.2320  -10.4230   63.7430 C.2    26  VAL26       0.2260
     32  O         -3.4460   -9.2540   63.8090 O.2    26  VAL26      -0.2867
     33  CB        -2.6760  -10.9140   61.3160 C.3    26  VAL26       0.0252
     34  CG1       -1.2070  -11.2660   61.6840 C.3    26  VAL26       0.0019
     35  CG2       -3.1030  -11.7190   60.1000 C.3    26  VAL26       0.0019
     36  N          0.2280   -9.8200   65.9310 N.3    28  VAL28      -0.1231
     37  CA         1.6910   -9.9810   65.9630 C.3    28  VAL28       0.1692
     38  C          2.1590   -9.4880   67.3430 C.2    28  VAL28       0.2592
     39  O          1.3310   -9.0640   68.1510 O.2    28  VAL28      -0.2718
     40  CB         2.3860   -9.2110   64.7710 C.3    28  VAL28       0.0266
     41  CG1        2.0510   -9.8450   63.4140 C.3    28  VAL28       0.0020
     42  CG2        1.9680   -7.7240   64.7370 C.3    28  VAL28       0.0020
     43  N          3.4610   -9.5670   67.6190 N.am   29  ASP29      -0.1974
     44  CA         4.0490   -9.2260   68.9280 C.3    29  ASP29       0.1709
     45  C          3.4200   -9.8410   70.2080 C.2    29  ASP29       0.2293
     46  O          3.5920   -9.3110   71.3420 O.2    29  ASP29      -0.2864
     47  CB         4.1840   -7.7070   69.0670 C.3    29  ASP29       0.1436
     48  CG         5.1140   -7.1080   68.0140 C.2    29  ASP29       0.3671
     49  OD1        4.9770   -5.8920   67.7330 O.co2  29  ASP29      -0.2456
     50  OD2        5.9660   -7.8540   67.4650 O.co2  29  ASP29      -0.2456
     51  N          8.2200  -16.7970   66.1300 N.3    59  GLN59      -0.1231
     52  CA         8.9790  -15.9280   65.1640 C.3    59  GLN59       0.1698
     53  C         10.3710  -15.6000   65.6630 C.2    59  GLN59       0.2592
     54  O         10.6600  -15.7370   66.8500 O.2    59  GLN59      -0.2718
     55  CB         8.3080  -14.5750   64.8450 C.3    59  GLN59       0.0381
     56  CG         6.8130  -14.5630   64.7040 C.3    59  GLN59       0.0905
     57  CD         6.3730  -14.9710   63.3490 C.2    59  GLN59       0.2608
     58  OE1        6.6670  -14.3160   62.3610 O.2    59  GLN59      -0.2717
     59  NE2        5.6580  -16.0640   63.2850 N.am   59  GLN59      -0.0878
     60  N         11.1770  -15.0840   64.7320 N.am   60  TYR60      -0.1962
     61  CA        12.6150  -14.7960   64.9290 C.3    60  TYR60       0.1771
     62  C         12.9040  -13.8890   66.1090 C.2    60  TYR60       0.2619
     63  O         13.8400  -14.1470   66.8880 O.2    60  TYR60      -0.2715
     64  CB        13.2070  -14.1080   63.6950 C.3    60  TYR60       0.0574
     65  CG        12.9750  -14.8390   62.4010 C.ar   60  TYR60      -0.0198
     66  CD1       11.8080  -14.6410   61.6660 C.ar   60  TYR60      -0.0009
     67  CD2       13.9370  -15.7190   61.9100 C.ar   60  TYR60      -0.0009
     68  CE1       11.6050  -15.3040   60.4900 C.ar   60  TYR60       0.0417
     69  CE2       13.7490  -16.3920   60.7390 C.ar   60  TYR60       0.0417
     70  CZ        12.5940  -16.1830   60.0310 C.ar   60  TYR60       0.1957
     71  OH        12.4250  -16.8710   58.8570 O.3    60  TYR60      -0.2866
     72  N         12.1190  -12.8170   66.2080 N.am   61  ASN61      -0.1972
     73  CA        12.2430  -11.8230   67.2660 C.3    61  ASN61       0.1688
     74  C         11.5340  -12.2800   68.5400 C.2    61  ASN61       0.2292
     75  O         10.6400  -11.6010   69.0350 O.2    61  ASN61      -0.2864
     76  CB        11.7420  -10.4440   66.8000 C.3    61  ASN61       0.1181
     77  CG        10.4570  -10.5150   65.9940 C.2    61  ASN61       0.2629
     78  OD1        9.7150  -11.4930   66.0600 O.2    61  ASN61      -0.2716
     79  ND2       10.2010   -9.4750   65.2080 N.am   61  ASN61      -0.0877
     80  N          9.1990  -13.6830   69.2550 N.3    63  THR63      -0.1218
     81  CA         7.7990  -13.2820   69.3550 C.3    63  THR63       0.1862
     82  C          6.8250  -14.2620   68.7080 C.2    63  THR63       0.2287
     83  O          7.1720  -14.9700   67.7710 O.2    63  THR63      -0.2866
     84  CB         7.5790  -11.8690   68.7980 C.3    63  THR63       0.1770
     85  OG1        6.5360  -11.2610   69.5410 O.3    63  THR63      -0.2211
     86  CG2        7.1690  -11.8780   67.3540 C.3    63  THR63       0.0375
     87  N          2.9470  -15.1660   66.7880 N.3    65  ARG65      -0.1245
     88  CA         2.0890  -14.6120   65.8100 C.3    65  ARG65       0.1563
     89  C          0.8330  -15.4560   65.6580 C.2    65  ARG65       0.2260
     90  O          0.9040  -16.6250   65.2530 O.2    65  ARG65      -0.2867
     91  CB         2.8340  -14.4610   64.4860 C.3    65  ARG65       0.0307
     92  CG         1.9540  -13.8390   63.3530 C.3    65  ARG65       0.0489
     93  CD         2.6930  -13.7420   62.0190 C.3    65  ARG65       0.2205
     94  NE         1.8860  -13.1510   60.9250 N.pl3  65  ARG65      -0.0865
     95  CZ         1.0010  -13.8240   60.1800 C.cat  65  ARG65       0.5346
     96  NH1        0.7640  -15.1000   60.4100 N.pl3  65  ARG65       0.1354
     97  NH2        0.3400  -13.2280   59.1930 N.pl3  65  ARG65       0.1354
     98  N        -10.6410   -4.1790   65.9100 N.3    98  LYS98      -0.1245
     99  CA       -10.4360   -3.7160   64.5520 C.3    98  LYS98       0.1561
    100  C        -11.7170   -4.0920   63.8050 C.2    98  LYS98       0.2260
    101  O        -12.4000   -5.0760   64.1700 O.2    98  LYS98      -0.2867
    102  CB        -9.1840   -4.2940   63.8840 C.3    98  LYS98       0.0271
    103  CG        -7.8740   -3.9550   64.5720 C.3    98  LYS98       0.0035
    104  CD        -7.4240   -2.5140   64.3780 C.3    98  LYS98       0.0206
    105  CE        -6.9100   -1.8250   65.6350 C.3    98  LYS98       0.1093
    106  NZ        -5.4270   -1.7080   65.7160 N.3    98  LYS98      -0.1314
@<TRIPOS>BOND
     1    20    21    2
     2    20    19    1
     3    24    26   ar
     4    24    23   ar
     5    22    19    1
     6    22    23    1
     7    26    28   ar
     8    19    18    1
     9    23    25   ar
    10    28    27   ar
    11    25    27   ar
    12    71    70    1
    13    97    95    1
    14    70    68   ar
    15    70    69   ar
    16    35    33    1
    17    95    96    1
    18    95    94    2
    19    68    66   ar
    20    69    67   ar
    21    94    93    1
    22    11    12    1
    23    11     8    1
    24     9    10    2
    25     9     8    1
    26    13    12   ar
    27    13    15   ar
    28    33    34    1
    29    33    30    1
    30    12    14   ar
    31    66    65   ar
    32     8     7    1
    33    15    17   ar
    34    67    65   ar
    35    93    92    1
    36    29    30    1
    37    14    16   ar
    38    58    57    2
    39    65    64    1
    40    30    31    1
    41    17    16   ar
    42    59    57   am
    43    57    56    1
    44    92    91    1
    45    41    40    1
    46    64    61    1
    47    31    32    2
    48   100   101    2
    49   100    99    1
    50   102    99    1
    51   102   103    1
    52   104   103    1
    53   104   105    1
    54    91    88    1
    55    99    98    1
    56    56    55    1
    57    60    61    1
    58    60    53   am
    59    42    40    1
    60    40    37    1
    61    55    52    1
    62    61    62    1
    63    52    53    1
    64    52    51    1
    65    79    77   am
    66    90    89    2
    67   105   106    1
    68    89    88    1
    69    53    54    2
    70    88    87    1
    71    36    37    1
    72    37    38    1
    73    77    78    2
    74    77    76    1
    75    62    72   am
    76    62    63    2
    77    72    73    1
    78     5     6    1
    79     5     2    1
    80     4     3    2
    81    76    73    1
    82     3     2    1
    83    73    74    1
    84    38    43   am
    85    38    39    2
    86    86    84    1
    87    50    48   ar
    88     2     1    1
    89    43    44    1
    90    49    48   ar
    91    83    82    2
    92    48    47    1
    93    74    75    2
    94    82    81    1
    95    84    81    1
    96    84    85    1
    97    44    47    1
    98    44    45    1
    99    80    81    1
   100    45    46    2
