@<TRIPOS>MOLECULE
tmp/2dttE00.pdb
 95 92 0 0 0
SMALL
GASTEIGER

@<TRIPOS>ATOM
      1  N        -33.7420    1.3070  -14.4310 N.3    15  HIS15      -0.1241
      2  CA       -33.3150   -0.0590  -14.1770 C.3    15  HIS15       0.1621
      3  C        -34.1570   -0.7360  -13.0990 C.2    15  HIS15       0.2264
      4  O        -34.8910   -0.0850  -12.3550 O.2    15  HIS15      -0.2867
      5  CB       -31.8400   -0.0830  -13.7680 C.3    15  HIS15       0.0745
      6  CG       -31.6050    0.3120  -12.3460 C.ar   15  HIS15       0.0817
      7  ND1      -31.9980    1.5310  -11.8370 N.ar   15  HIS15      -0.2268
      8  CD2      -31.0370   -0.3610  -11.3180 C.ar   15  HIS15       0.1154
      9  CE1      -31.6840    1.5920  -10.5560 C.ar   15  HIS15       0.1986
     10  NE2      -31.1000    0.4570  -10.2160 N.ar   15  HIS15      -0.2212
     11  N        -33.8230   -3.8730  -10.0730 N.3    17  VAL17      -0.1245
     12  CA       -32.9030   -4.7240   -9.3280 C.3    17  VAL17       0.1561
     13  C        -33.3570   -6.1770   -9.2910 C.2    17  VAL17       0.2260
     14  O        -34.5510   -6.4670   -9.3860 O.2    17  VAL17      -0.2867
     15  CB       -32.7430   -4.2390   -7.8730 C.3    17  VAL17       0.0252
     16  CG1      -31.3190   -3.7660   -7.6400 C.3    17  VAL17       0.0019
     17  CG2      -33.7360   -3.1180   -7.5820 C.3    17  VAL17       0.0019
     18  N        -37.6470    1.7460  -12.5250 N.3    27  HIS27      -0.1241
     19  CA       -37.7700    3.1320  -12.0990 C.3    27  HIS27       0.1621
     20  C        -36.5040    3.8890  -12.4630 C.2    27  HIS27       0.2264
     21  O        -35.4220    3.3070  -12.5470 O.2    27  HIS27      -0.2867
     22  CB       -38.0070    3.1940  -10.5930 C.3    27  HIS27       0.0745
     23  CG       -37.0520    2.3580   -9.8020 C.ar   27  HIS27       0.0817
     24  ND1      -36.9500    0.9930   -9.9620 N.ar   27  HIS27      -0.2268
     25  CD2      -36.1410    2.6960   -8.8620 C.ar   27  HIS27       0.1154
     26  CE1      -36.0150    0.5260   -9.1550 C.ar   27  HIS27       0.1986
     27  NE2      -35.5080    1.5390   -8.4760 N.ar   27  HIS27      -0.2212
     28  N        -33.6740    7.2180  -12.1000 N.3    29  HIS29      -0.1241
     29  CA       -32.9690    8.0120  -11.1090 C.3    29  HIS29       0.1621
     30  C        -31.9120    8.8610  -11.7710 C.2    29  HIS29       0.2264
     31  O        -31.5030    8.6020  -12.9000 O.2    29  HIS29      -0.2867
     32  CB       -32.2380    7.1140  -10.1120 C.3    29  HIS29       0.0745
     33  CG       -33.1390    6.2700   -9.2720 C.ar   29  HIS29       0.0817
     34  ND1      -33.2900    4.9160   -9.4740 N.ar   29  HIS29      -0.2268
     35  CD2      -33.9440    6.5900   -8.2320 C.ar   29  HIS29       0.1154
     36  CE1      -34.1490    4.4370   -8.5940 C.ar   29  HIS29       0.1986
     37  NE2      -34.5600    5.4310   -7.8300 N.ar   29  HIS29      -0.2212
     38  N        -28.2040    9.6560  -11.4000 N.3    31  PHE31      -0.1241
     39  CA       -27.0440    9.1100  -10.7240 C.3    31  PHE31       0.1605
     40  C        -26.0240   10.2270  -10.5940 C.2    31  PHE31       0.2264
     41  O        -25.8100   10.9840  -11.5360 O.2    31  PHE31      -0.2867
     42  CB       -26.4510    7.9570  -11.5390 C.3    31  PHE31       0.0534
     43  CG       -27.2410    6.6780  -11.4550 C.ar   31  PHE31      -0.0203
     44  CD1      -26.9840    5.7530  -10.4480 C.ar   31  PHE31      -0.0042
     45  CD2      -28.2450    6.4020  -12.3770 C.ar   31  PHE31      -0.0042
     46  CE1      -27.7140    4.5710  -10.3600 C.ar   31  PHE31      -0.0003
     47  CE2      -28.9820    5.2250  -12.2990 C.ar   31  PHE31      -0.0003
     48  CZ       -28.7170    4.3050  -11.2890 C.ar   31  PHE31      -0.0000
     49  N        -27.7990   -4.7260  -13.0280 N.3    75  PRO75      -0.2102
     50  CA       -27.4000   -3.3240  -12.8720 C.3    75  PRO75       0.1504
     51  C        -27.4490   -2.7280  -11.4740 C.2    75  PRO75       0.2576
     52  O        -28.0800   -1.6910  -11.2630 O.2    75  PRO75      -0.2718
     53  CB       -28.3310   -2.6010  -13.8380 C.3    75  PRO75       0.0282
     54  CG       -29.6000   -3.3810  -13.6810 C.3    75  PRO75       0.0208
     55  CD       -29.1100   -4.8240  -13.6980 C.3    75  PRO75       0.0893
     56  N        -26.7900   -3.3760  -10.5200 N.am   76  THR76      -0.1939
     57  CA       -26.7360   -2.8420   -9.1640 C.3    76  THR76       0.2028
     58  C        -25.8000   -1.6330   -9.2210 C.2    76  THR76       0.2643
     59  O        -25.0340   -1.4740  -10.1790 O.2    76  THR76      -0.2714
     60  CB       -26.1660   -3.8670   -8.1700 C.3    76  THR76       0.1808
     61  OG1      -24.8050   -4.1650   -8.5140 O.3    76  THR76      -0.2208
     62  CG2      -26.9880   -5.1430   -8.2090 C.3    76  THR76       0.0379
     63  N        -25.8590   -0.7800   -8.2070 N.am   77  THR77      -0.1936
     64  CA       -25.0110    0.4020   -8.1820 C.3    77  THR77       0.2028
     65  C        -23.5380   -0.0050   -8.1670 C.2    77  THR77       0.2642
     66  O        -22.7020    0.6450   -8.7920 O.2    77  THR77      -0.2714
     67  CB       -25.3370    1.2810   -6.9590 C.3    77  THR77       0.1808
     68  OG1      -26.7030    1.7130   -7.0360 O.3    77  THR77      -0.2208
     69  CG2      -24.4370    2.5040   -6.9220 C.3    77  THR77       0.0379
     70  N        -23.2320   -1.0940   -7.4640 N.am   78  GLU78      -0.1976
     71  CA       -21.8630   -1.5950   -7.3690 C.3    78  GLU78       0.1602
     72  C        -21.3210   -2.0170   -8.7280 C.2    78  GLU78       0.2287
     73  O        -20.2070   -1.6470   -9.0990 O.2    78  GLU78      -0.2864
     74  CB       -21.7790   -2.7810   -6.3940 C.3    78  GLU78       0.0415
     75  CG       -21.9120   -2.3990   -4.9230 C.3    78  GLU78       0.1163
     76  CD       -23.3460   -2.4450   -4.4140 C.2    78  GLU78       0.3649
     77  OE1      -24.2590   -2.0230   -5.1470 O.co2  78  GLU78      -0.2457
     78  OE2      -23.5610   -2.8900   -3.2690 O.co2  78  GLU78      -0.2457
     79  N        -26.9440    6.7090   -6.2740 N.3   105  GLU105     -0.1245
     80  CA       -28.2200    6.4280   -6.9140 C.3   105  GLU105      0.1567
     81  C        -29.1590    7.3810   -6.1940 C.2   105  GLU105      0.2260
     82  O        -29.6840    7.0680   -5.1250 O.2   105  GLU105     -0.2867
     83  CB       -28.6310    4.9810   -6.6690 C.3   105  GLU105      0.0388
     84  CG       -29.9770    4.6170   -7.2570 C.3   105  GLU105      0.1160
     85  CD       -30.2460    3.1330   -7.1730 C.2   105  GLU105      0.3649
     86  OE1      -30.4020    2.6250   -6.0460 O.co2 105  GLU105     -0.2457
     87  OE2      -30.2850    2.4750   -8.2300 O.co2 105  GLU105     -0.2457
     88  N        -28.5140    6.9160   -1.4850 N.3   109  ASN109     -0.1240
     89  CA       -27.7590    5.6660   -1.5070 C.3   109  ASN109      0.1653
     90  C        -26.6110    5.6970   -2.4900 C.2   109  ASN109      0.2266
     91  O        -26.7720    6.1530   -3.6210 O.2   109  ASN109     -0.2867
     92  CB       -28.6890    4.5120   -1.8670 C.3   109  ASN109      0.1155
     93  CG       -29.8520    4.3980   -0.9170 C.2   109  ASN109      0.2627
     94  OD1      -29.6800    4.0450    0.2490 O.2   109  ASN109     -0.2716
     95  ND2      -31.0450    4.7110   -1.4030 N.am  109  ASN109     -0.0877
@<TRIPOS>BOND
     1     1     2    1
     2     2     5    1
     3     2     3    1
     4    53    54    1
     5    53    50    1
     6     5     6    1
     7    55    54    1
     8    55    49    1
     9     3     4    2
    10    49    50    1
    11    31    30    2
    12    50    51    1
    13    21    20    2
    14    18    19    1
    15    20    19    1
    16    45    47   ar
    17    45    43   ar
    18     6     7   ar
    19     6     8   ar
    20    47    48   ar
    21    28    29    1
    22    19    22    1
    23     7     9   ar
    24    30    29    1
    25    42    43    1
    26    42    39    1
    27    41    40    2
    28    51    52    2
    29    51    56   am
    30    43    44   ar
    31    38    39    1
    32     8    10   ar
    33    48    46   ar
    34    29    32    1
    35    39    40    1
    36    22    23    1
    37     9    10   ar
    38    56    57    1
    39    44    46   ar
    40    59    58    2
    41    32    33    1
    42    11    12    1
    43    24    23   ar
    44    24    26   ar
    45    23    25   ar
    46    34    33   ar
    47    34    36   ar
    48    14    13    2
    49    12    13    1
    50    12    15    1
    51    33    35   ar
    52    58    57    1
    53    58    63   am
    54    57    60    1
    55    26    27   ar
    56    73    72    2
    57    25    27   ar
    58    66    65    2
    59    72    71    1
    60    36    37   ar
    61    61    60    1
    62    35    37   ar
    63    87    85   ar
    64    62    60    1
    65    63    64    1
    66    64    65    1
    67    64    67    1
    68    65    70   am
    69    15    16    1
    70    15    17    1
    71    70    71    1
    72    71    74    1
    73    84    85    1
    74    84    83    1
    75    85    86   ar
    76    68    67    1
    77    67    69    1
    78    80    83    1
    79    80    79    1
    80    80    81    1
    81    74    75    1
    82    81    82    2
    83    77    76   ar
    84    75    76    1
    85    76    78   ar
    86    91    90    2
    87    90    89    1
    88    92    89    1
    89    92    93    1
    90    89    88    1
    91    95    93   am
    92    93    94    2
