@<TRIPOS>MOLECULE
tmp/2dtwD00.pdb
 116 111 0 0 0
SMALL
GASTEIGER

@<TRIPOS>ATOM
      1  N         74.8120    4.2090   -5.0180 N.3    84  HIS84      -0.1241
      2  CA        75.3930    5.0730   -4.0020 C.3    84  HIS84       0.1621
      3  C         75.5840    6.5120   -4.4670 C.2    84  HIS84       0.2264
      4  O         76.3840    6.7820   -5.3660 O.2    84  HIS84      -0.2867
      5  CB        76.7430    4.4930   -3.5620 C.3    84  HIS84       0.0745
      6  CG        77.5960    4.0250   -4.7040 C.ar   84  HIS84       0.0817
      7  ND1       77.8550    2.6910   -4.9450 N.ar   84  HIS84      -0.2268
      8  CD2       78.2280    4.7120   -5.6880 C.ar   84  HIS84       0.1154
      9  CE1       78.6080    2.5780   -6.0260 C.ar   84  HIS84       0.1986
     10  NE2       78.8490    3.7890   -6.4960 N.ar   84  HIS84      -0.2212
     11  N         76.8190   10.4170   -4.5370 N.3    86  ALA86      -0.1231
     12  CA        78.1730   10.9330   -4.3210 C.3    86  ALA86       0.1694
     13  C         78.3120   12.3300   -4.9390 C.2    86  ALA86       0.2592
     14  O         77.5070   12.7040   -5.7890 O.2    86  ALA86      -0.2718
     15  CB        79.1890    9.9730   -4.9540 C.3    86  ALA86       0.0304
     16  N         79.3080   13.1120   -4.5200 N.am   87  ASP87      -0.1974
     17  CA        80.2760   12.7360   -3.4940 C.3    87  ASP87       0.1709
     18  C         80.1040   13.5890   -2.2380 C.2    87  ASP87       0.2293
     19  O         80.4690   13.1670   -1.1380 O.2    87  ASP87      -0.2864
     20  CB        81.7010   12.9170   -4.0100 C.3    87  ASP87       0.1436
     21  CG        82.2580   11.6600   -4.6540 C.2    87  ASP87       0.3671
     22  OD1       82.1370   11.5290   -5.8900 O.co2  87  ASP87      -0.2456
     23  OD2       82.8110   10.8060   -3.9170 O.co2  87  ASP87      -0.2456
     24  N         88.2200   15.6290   -8.6570 N.3   103  GLY103     -0.1210
     25  CA        86.8110   15.4930   -8.3350 C.3   103  GLY103      0.1956
     26  C         86.5240   14.3050   -7.4320 C.2   103  GLY103      0.2612
     27  O         87.3280   13.9570   -6.5710 O.2   103  GLY103     -0.2717
     28  N         85.3710   13.6780   -7.6240 N.am  104  GLY104     -0.1942
     29  CA        85.0110   12.5390   -6.7980 C.3   104  GLY104      0.2014
     30  C         85.1140   12.8260   -5.3090 C.2   104  GLY104      0.2639
     31  O         84.7190   13.9010   -4.8410 O.2   104  GLY104     -0.2714
     32  N         85.6580   11.8670   -4.5620 N.am  105  GLY105     -0.1939
     33  CA        85.7940   12.0190   -3.1230 C.3   105  GLY105      0.2014
     34  C         86.6910   13.1580   -2.6560 C.2   105  GLY105      0.2638
     35  O         86.7970   13.4270   -1.4560 O.2   105  GLY105     -0.2714
     36  N         87.3450   13.8280   -3.5970 N.am  106  TYR106     -0.1973
     37  CA        88.2290   14.9370   -3.2690 C.3   106  TYR106      0.1639
     38  C         87.4970   16.2840   -3.3430 C.2   106  TYR106      0.2290
     39  O         88.0780   17.3440   -3.0760 O.2   106  TYR106     -0.2864
     40  CB        89.4270   14.9200   -4.2100 C.3   106  TYR106      0.0560
     41  CG        90.3350   13.7230   -4.0080 C.ar  106  TYR106     -0.0198
     42  CD1       91.0100   13.5310   -2.8020 C.ar  106  TYR106     -0.0009
     43  CD2       90.5480   12.8020   -5.0360 C.ar  106  TYR106     -0.0009
     44  CE1       91.8810   12.4550   -2.6270 C.ar  106  TYR106      0.0417
     45  CE2       91.4170   11.7210   -4.8730 C.ar  106  TYR106      0.0417
     46  CZ        92.0790   11.5580   -3.6700 C.ar  106  TYR106      0.1957
     47  OH        92.9440   10.5060   -3.5150 O.3   106  TYR106     -0.2866
     48  N         79.5720    9.9920    0.1270 N.3   126  PHE126     -0.1241
     49  CA        80.0760    8.7250   -0.3970 C.3   126  PHE126      0.1605
     50  C         81.2160    8.1860    0.4560 C.2   126  PHE126      0.2264
     51  O         82.1620    8.9160    0.7810 O.2   126  PHE126     -0.2867
     52  CB        80.5810    8.8990   -1.8230 C.3   126  PHE126      0.0534
     53  CG        81.0920    7.6280   -2.4300 C.ar  126  PHE126     -0.0203
     54  CD1       80.2180    6.7380   -3.0500 C.ar  126  PHE126     -0.0042
     55  CD2       82.4430    7.3000   -2.3470 C.ar  126  PHE126     -0.0042
     56  CE1       80.6810    5.5400   -3.5760 C.ar  126  PHE126     -0.0003
     57  CE2       82.9190    6.1050   -2.8680 C.ar  126  PHE126     -0.0003
     58  CZ        82.0380    5.2220   -3.4840 C.ar  126  PHE126     -0.0000
     59  N         84.4660    6.6010    0.8730 N.3   128  ASN128     -0.1240
     60  CA        85.7130    6.2040    0.2240 C.3   128  ASN128      0.1653
     61  C         86.4570    5.2670    1.1920 C.2   128  ASN128      0.2266
     62  O         86.0050    5.0350    2.3130 O.2   128  ASN128     -0.2867
     63  CB        86.5820    7.4270   -0.0980 C.3   128  ASN128      0.1155
     64  CG        86.1000    8.1800   -1.3310 C.2   128  ASN128      0.2627
     65  OD1       85.6320    9.3120   -1.2370 O.2   128  ASN128     -0.2716
     66  ND2       86.2100    7.5470   -2.4950 N.am  128  ASN128     -0.0877
     67  N         89.0190    5.7610    2.9240 N.3   130  TRP130     -0.1241
     68  CA        89.4700    6.4870    4.1070 C.3   130  TRP130      0.1605
     69  C         88.3280    7.0550    4.9580 C.2   130  TRP130      0.2264
     70  O         88.5750    7.7110    5.9710 O.2   130  TRP130     -0.2867
     71  CB        90.3930    7.6270    3.6720 C.3   130  TRP130      0.0550
     72  CG        89.7310    8.6180    2.7540 C.ar  130  TRP130      0.0003
     73  CD1       88.8610    9.6240    3.1060 C.ar  130  TRP130      0.0946
     74  CD2       89.8620    8.6870    1.3260 C.ar  130  TRP130      0.0152
     75  NE1       88.4480   10.3070    1.9830 N.ar  130  TRP130     -0.2442
     76  CE2       89.0460    9.7550    0.8800 C.ar  130  TRP130      0.0810
     77  CE3       90.5890    7.9480    0.3790 C.ar  130  TRP130      0.0012
     78  CZ2       88.9410   10.1040   -0.4720 C.ar  130  TRP130      0.0191
     79  CZ3       90.4820    8.2970   -0.9740 C.ar  130  TRP130      0.0001
     80  CH2       89.6630    9.3650   -1.3800 C.ar  130  TRP130      0.0015
     81  N         79.7450   11.6200   -8.6560 N.3   211  GLY211     -0.1210
     82  CA        80.4840   10.4180   -9.0000 C.3   211  GLY211      0.1956
     83  C         81.5330   10.5100  -10.0870 C.2   211  GLY211      0.2611
     84  O         81.2970   11.0520  -11.1640 O.2   211  GLY211     -0.2717
     85  N         82.7050    9.9610   -9.7940 N.am  212  ASP212     -0.1973
     86  CA        83.8240    9.9350  -10.7220 C.3   212  ASP212      0.1709
     87  C         83.5520    8.8370  -11.7570 C.2   212  ASP212      0.2293
     88  O         83.0710    7.7600  -11.4130 O.2   212  ASP212     -0.2864
     89  CB        85.0920    9.6050   -9.9390 C.3   212  ASP212      0.1436
     90  CG        86.3470    9.8000  -10.7470 C.2   212  ASP212      0.3671
     91  OD1       86.6920   10.9690  -11.0330 O.co2 212  ASP212     -0.2456
     92  OD2       86.9900    8.7880  -11.0950 O.co2 212  ASP212     -0.2456
     93  N         85.4010    6.7380  -13.1290 N.3   214  SER214     -0.1202
     94  CA        86.0940    5.4950  -12.8020 C.3   214  SER214      0.2020
     95  C         85.2720    4.5440  -11.9330 C.2   214  SER214      0.2619
     96  O         85.5830    3.3550  -11.8440 O.2   214  SER214     -0.2717
     97  CB        87.4430    5.7840  -12.1250 C.3   214  SER214      0.2103
     98  OG        87.2920    6.1300  -10.7600 O.3   214  SER214     -0.2182
     99  N         84.2300    5.0700  -11.2930 N.am  215  GLY215     -0.1956
    100  CA        83.3770    4.2450  -10.4550 C.3   215  GLY215      0.1869
    101  C         82.4010    3.4610  -11.3140 C.2   215  GLY215      0.2309
    102  O         81.6980    2.5710  -10.8290 O.2   215  GLY215     -0.2863
    103  N         79.5870    4.0940  -12.3560 N.3   217  GLN217     -0.1245
    104  CA        78.1840    4.1920  -11.9630 C.3   217  GLN217      0.1566
    105  C         77.6340    5.5850  -12.2290 C.2   217  GLN217      0.2260
    106  O         77.9910    6.5550  -11.5570 O.2   217  GLN217     -0.2867
    107  CB        78.0150    3.8390  -10.4870 C.3   217  GLN217      0.0367
    108  CG        78.2150    2.3690  -10.1920 C.3   217  GLN217      0.0905
    109  CD        77.1300    1.5000  -10.8040 C.2   217  GLN217      0.2608
    110  OE1       76.8590    1.5700  -12.0030 O.2   217  GLN217     -0.2717
    111  NE2       76.5070    0.6670   -9.9790 N.am  217  GLN217     -0.0878
    112  N         75.7370    7.4660   -9.4030 N.3   220  ALA220     -0.1245
    113  CA        76.5040    8.0450   -8.2960 C.3   220  ALA220      0.1562
    114  C         76.4920    9.5600   -8.4080 C.2   220  ALA220      0.2260
    115  O         77.4960   10.1660   -8.7690 O.2   220  ALA220     -0.2867
    116  CB        77.9450    7.5350   -8.3300 C.3   220  ALA220      0.0290
@<TRIPOS>BOND
     1    93    94    1
     2    94    97    1
     3    94    95    1
     4   103   104    1
     5   105   104    1
     6   105   106    2
     7    97    98    1
     8   110   109    2
     9   104   107    1
    10    95    96    2
    11    95    99   am
    12    87    88    2
    13    87    86    1
    14   101   102    2
    15   101   100    1
    16    99   100    1
    17    84    83    2
    18    92    90   ar
    19    91    90   ar
    20   109   108    1
    21   109   111   am
    22    90    89    1
    23    86    89    1
    24    86    85    1
    25   107   108    1
    26    83    85   am
    27    83    82    1
    28   112   113    1
    29    82    81    1
    30   115   114    2
    31    24    25    1
    32   114   113    1
    33    25    26    1
    34   116   113    1
    35    28    26   am
    36    28    29    1
    37    26    27    2
    38    29    30    1
    39    10     9   ar
    40    10     8   ar
    41     9     7   ar
    42    22    21   ar
    43    14    13    2
    44     8     6   ar
    45     4     3    2
    46    30    31    2
    47    30    32   am
    48    43    45   ar
    49    43    41   ar
    50     1     2    1
    51    15    12    1
    52     7     6   ar
    53    13    16   am
    54    13    12    1
    55    45    46   ar
    56     6     5    1
    57    21    20    1
    58    21    23   ar
    59    32    33    1
    60    11    12    1
    61    16    17    1
    62     3     2    1
    63    40    41    1
    64    40    37    1
    65    20    17    1
    66    41    42   ar
    67     2     5    1
    68    46    47    1
    69    46    44   ar
    70    36    37    1
    71    36    34   am
    72    56    58   ar
    73    56    54   ar
    74    17    18    1
    75    58    57   ar
    76    38    37    1
    77    38    39    2
    78    33    34    1
    79    54    53   ar
    80    57    55   ar
    81    42    44   ar
    82    34    35    2
    83    66    64   am
    84    53    55   ar
    85    53    52    1
    86    18    19    2
    87    52    49    1
    88    80    79   ar
    89    80    78   ar
    90    64    65    2
    91    64    63    1
    92    79    77   ar
    93    78    76   ar
    94    49    48    1
    95    49    50    1
    96    63    60    1
    97    60    59    1
    98    60    61    1
    99    77    74   ar
   100    50    51    2
   101    76    74   ar
   102    76    75   ar
   103    61    62    2
   104    74    72   ar
   105    75    73   ar
   106    72    73   ar
   107    72    71    1
   108    67    68    1
   109    71    68    1
   110    68    69    1
   111    69    70    2
