@<TRIPOS>MOLECULE
tmp/2dtxB00.pdb
 110 106 0 0 0
SMALL
GASTEIGER

@<TRIPOS>ATOM
      1  N         11.4270  -11.9760    5.0490 N.3    84  GLU84      -0.1245
      2  CA        10.9160  -12.2480    6.3850 C.3    84  GLU84       0.1567
      3  C          9.6450  -13.1000    6.4000 C.2    84  GLU84       0.2260
      4  O          8.7190  -12.8690    5.6270 O.2    84  GLU84      -0.2867
      5  CB        10.6270  -10.9470    7.1580 C.3    84  GLU84       0.0388
      6  CG        10.2260  -11.2250    8.6200 C.3    84  GLU84       0.1160
      7  CD        10.1380   -9.9800    9.5040 C.2    84  GLU84       0.3649
      8  OE1       10.1020  -10.1540   10.7400 O.co2  84  GLU84      -0.2457
      9  OE2       10.0930   -8.8490    8.9800 O.co2  84  GLU84      -0.2457
     10  N          7.2270  -15.4610    9.5170 N.3    86  TYR86      -0.1241
     11  CA         7.0330  -15.5270   10.9570 C.3    86  TYR86       0.1605
     12  C          6.7980  -16.9100   11.5420 C.2    86  TYR86       0.2264
     13  O          6.3160  -17.8220   10.8600 O.2    86  TYR86      -0.2867
     14  CB         5.8600  -14.6060   11.3270 C.3    86  TYR86       0.0534
     15  CG         6.0010  -13.2170   10.7390 C.ar   86  TYR86      -0.0201
     16  CD1        6.7710  -12.2480   11.3730 C.ar   86  TYR86      -0.0009
     17  CD2        5.4360  -12.9020    9.5010 C.ar   86  TYR86      -0.0009
     18  CE1        6.9820  -10.9960   10.7890 C.ar   86  TYR86       0.0417
     19  CE2        5.6400  -11.6660    8.9050 C.ar   86  TYR86       0.0417
     20  CZ         6.4160  -10.7140    9.5520 C.ar   86  TYR86       0.1957
     21  OH         6.6310   -9.5040    8.9390 O.3    86  TYR86      -0.2866
     22  N         18.3110   -3.2120   10.4540 N.3   132  SER132     -0.1202
     23  CA        16.9430   -2.9280   10.8880 C.3   132  SER132      0.2020
     24  C         16.9860   -2.3520   12.2960 C.2   132  SER132      0.2619
     25  O         17.9680   -2.5540   13.0050 O.2   132  SER132     -0.2717
     26  CB        16.1300   -4.2390   10.9250 C.3   132  SER132      0.2103
     27  OG        14.8740   -4.0620   11.5680 O.3   132  SER132     -0.2182
     28  N         15.9240   -1.6480   12.6890 N.am  133  VAL133     -0.1965
     29  CA        15.8160   -1.1650   14.0610 C.3   133  VAL133      0.1727
     30  C         15.8090   -2.4200   14.9530 C.2   133  VAL133      0.2616
     31  O         16.1350   -2.3400   16.1390 O.2   133  VAL133     -0.2715
     32  CB        14.5000   -0.3600   14.2650 C.3   133  VAL133      0.0290
     33  CG1       13.2970   -1.2880   14.2120 C.3   133  VAL133      0.0023
     34  CG2       14.5260    0.3870   15.5820 C.3   133  VAL133      0.0023
     35  N         15.4660   -3.5790   14.3730 N.am  134  GLN134     -0.1977
     36  CA        15.4410   -4.8240   15.1300 C.3   134  GLN134      0.1601
     37  C         16.8170   -5.4080   15.4240 C.2   134  GLN134      0.2287
     38  O         16.9400   -6.5480   15.8800 O.2   134  GLN134     -0.2864
     39  CB        14.5240   -5.8660   14.4600 C.3   134  GLN134      0.0394
     40  CG        13.1140   -5.3250   14.3560 C.3   134  GLN134      0.0908
     41  CD        12.1070   -6.3690   14.0270 C.2   134  GLN134      0.2608
     42  OE1       11.9910   -7.3790   14.7340 O.2   134  GLN134     -0.2717
     43  NE2       11.3500   -6.1440   12.9510 N.am  134  GLN134     -0.0878
     44  N         10.7660   -7.7010   17.4320 N.3   139  THR139     -0.1218
     45  CA         9.3760   -8.1240   17.3800 C.3   139  THR139      0.1862
     46  C          9.2720   -9.6080   17.6950 C.2   139  THR139      0.2287
     47  O         10.2730  -10.3300   17.7080 O.2   139  THR139     -0.2866
     48  CB         8.7580   -7.8330   16.0070 C.3   139  THR139      0.1770
     49  OG1        9.4790   -8.5450   14.9990 O.3   139  THR139     -0.2211
     50  CG2        8.8110   -6.3370   15.7050 C.3   139  THR139      0.0375
     51  N         14.6210  -13.6750   11.3830 N.3   145  TYR145     -0.1241
     52  CA        14.7920  -12.3230   10.8760 C.3   145  TYR145      0.1605
     53  C         15.6210  -11.4980   11.8520 C.2   145  TYR145      0.2264
     54  O         16.5870  -10.8450   11.4600 O.2   145  TYR145     -0.2867
     55  CB        13.4350  -11.6600   10.6910 C.3   145  TYR145      0.0534
     56  CG        13.5310  -10.2270   10.2050 C.ar  145  TYR145     -0.0201
     57  CD1       13.6620   -9.9370    8.8460 C.ar  145  TYR145     -0.0009
     58  CD2       13.4870   -9.1640   11.1110 C.ar  145  TYR145     -0.0009
     59  CE1       13.7430   -8.6230    8.4000 C.ar  145  TYR145      0.0417
     60  CE2       13.5670   -7.8420   10.6750 C.ar  145  TYR145      0.0417
     61  CZ        13.6940   -7.5850    9.3210 C.ar  145  TYR145      0.1957
     62  OH        13.7600   -6.2910    8.8790 O.3   145  TYR145     -0.2866
     63  N         16.6280    0.8580    9.7090 N.3   174  PRO174     -0.2102
     64  CA        15.2800    1.4220    9.5910 C.3   174  PRO174      0.1504
     65  C         14.2180    0.7500   10.4550 C.2   174  PRO174      0.2576
     66  O         14.2960   -0.4640   10.7110 O.2   174  PRO174     -0.2718
     67  CB        14.9590    1.2490    8.1030 C.3   174  PRO174      0.0282
     68  CG        15.6770    0.0080    7.7510 C.3   174  PRO174      0.0208
     69  CD        17.0060    0.1230    8.4890 C.3   174  PRO174      0.0893
     70  N         13.2540    1.5410   10.9130 N.am  175  ALA175     -0.1966
     71  CA        12.1260    0.9820   11.6610 C.3   175  ALA175      0.1728
     72  C         11.0500    0.6730   10.6040 C.2   175  ALA175      0.2616
     73  O         11.3780    0.1810    9.5160 O.2   175  ALA175     -0.2715
     74  CB        11.6020    1.9730   12.7210 C.3   175  ALA175      0.0334
     75  N          9.7830    0.9580   10.8960 N.am  176  THR176     -0.1951
     76  CA         8.7260    0.6440    9.9230 C.3   176  THR176      0.1897
     77  C          8.7210    1.6200    8.7600 C.2   176  THR176      0.2313
     78  O          8.5440    2.8060    8.9650 O.2   176  THR176     -0.2863
     79  CB         7.3550    0.6520   10.5900 C.3   176  THR176      0.1794
     80  OG1        7.4000   -0.1750   11.7640 O.3   176  THR176     -0.2208
     81  CG2        6.2980    0.0750    9.6240 C.3   176  THR176      0.0378
     82  N          6.1550   -4.5110    4.1840 N.3   182  VAL182     -0.1245
     83  CA         5.4550   -4.0550    5.3760 C.3   182  VAL182      0.1561
     84  C          3.9470   -4.1740    5.1590 C.2   182  VAL182      0.2260
     85  O          3.1830   -4.3660    6.1020 O.2   182  VAL182     -0.2867
     86  CB         5.8280   -2.5990    5.7240 C.3   182  VAL182      0.0252
     87  CG1        4.8190   -2.0160    6.6970 C.3   182  VAL182      0.0019
     88  CG2        7.2230   -2.5690    6.3340 C.3   182  VAL182      0.0019
     89  N          0.9120    1.2900   13.6560 N.3   204  TRP204     -0.1241
     90  CA         2.3600    1.1700   13.7600 C.3   204  TRP204      0.1605
     91  C          2.9840    2.5550   13.7000 C.2   204  TRP204      0.2264
     92  O          3.8960    2.8750   14.4630 O.2   204  TRP204     -0.2867
     93  CB         2.9140    0.2980   12.6380 C.3   204  TRP204      0.0550
     94  CG         2.5370   -1.1470   12.7610 C.ar  204  TRP204      0.0003
     95  CD1        2.2160   -1.8130   13.9080 C.ar  204  TRP204      0.0946
     96  CD2        2.4880   -2.1170   11.7040 C.ar  204  TRP204      0.0152
     97  NE1        1.9690   -3.1390   13.6350 N.ar  204  TRP204     -0.2442
     98  CE2        2.1300   -3.3530   12.2910 C.ar  204  TRP204      0.0810
     99  CE3        2.7130   -2.0620   10.3230 C.ar  204  TRP204      0.0012
    100  CZ2        1.9920   -4.5280   11.5440 C.ar  204  TRP204      0.0191
    101  CZ3        2.5750   -3.2400    9.5720 C.ar  204  TRP204      0.0001
    102  CH2        2.2190   -4.4540   10.1930 C.ar  204  TRP204      0.0015
    103  N         11.8020    5.3440   17.2440 N.3   245  LEU245     -0.1245
    104  CA        11.2690    4.1180   17.8350 C.3   245  LEU245      0.1561
    105  C         12.1500    3.4420   18.8690 C.2   245  LEU245      0.2260
    106  O         11.6610    3.0330   19.9190 O.2   245  LEU245     -0.2867
    107  CB        10.9250    3.0930   16.7420 C.3   245  LEU245      0.0270
    108  CG        10.0340    1.9580   17.2560 C.3   245  LEU245      0.0019
    109  CD1        8.6010    2.4850   17.4990 C.3   245  LEU245      0.0001
    110  CD2       10.0160    0.8390   16.2440 C.3   245  LEU245      0.0001
@<TRIPOS>BOND
     1    82    83    1
     2     1     2    1
     3    84    83    1
     4    84    85    2
     5    83    86    1
     6     4     3    2
     7    86    88    1
     8    86    87    1
     9     2     3    1
    10     2     5    1
    11     5     6    1
    12    68    67    1
    13    68    69    1
    14    67    64    1
    15    59    57   ar
    16    59    61   ar
    17    69    63    1
    18     6     7    1
    19    77    78    2
    20    77    76    1
    21    57    56   ar
    22    62    61    1
    23    19    17   ar
    24    19    20   ar
    25    21    20    1
    26     9     7   ar
    27    61    60   ar
    28    17    15   ar
    29     7     8   ar
    30    73    72    2
    31    10    11    1
    32    20    18   ar
    33   101   102   ar
    34   101    99   ar
    35    64    63    1
    36    64    65    1
    37    81    79    1
    38    76    79    1
    39    76    75    1
    40   102   100   ar
    41    56    55    1
    42    56    58   ar
    43    99    96   ar
    44    22    23    1
    45    65    66    2
    46    65    70   am
    47    79    80    1
    48    72    75   am
    49    72    71    1
    50    60    58   ar
    51    55    52    1
    52    15    14    1
    53    15    16   ar
    54    18    16   ar
    55    13    12    2
    56    52    51    1
    57    52    53    1
    58    23    26    1
    59    23    24    1
    60    70    71    1
    61    26    27    1
    62    11    14    1
    63    11    12    1
    64    54    53    2
    65   100    98   ar
    66    71    74    1
    67    96    98   ar
    68    96    94   ar
    69    98    97   ar
    70    24    28   am
    71    24    25    2
    72    93    94    1
    73    93    90    1
    74    28    29    1
    75    94    95   ar
    76    43    41   am
    77    97    95   ar
    78    89    90    1
    79    91    90    1
    80    91    92    2
    81    41    40    1
    82    41    42    2
    83    29    32    1
    84    29    30    1
    85    33    32    1
    86    32    34    1
    87    40    39    1
    88    35    30   am
    89    35    36    1
    90    39    36    1
    91    30    31    2
    92    49    48    1
    93    36    37    1
    94    37    38    2
    95    50    48    1
    96    48    45    1
    97   110   108    1
    98   107   108    1
    99   107   104    1
   100   103   104    1
   101   108   109    1
   102    45    44    1
   103    45    46    1
   104    46    47    2
   105   104   105    1
   106   105   106    2
