@<TRIPOS>MOLECULE
tmp/2dtyA00.pdb
 116 111 0 0 0
SMALL
GASTEIGER

@<TRIPOS>ATOM
      1  N        135.4930    7.6300    4.9690 N.3    84  HIS84      -0.1241
      2  CA       134.2610    7.8700    5.7000 C.3    84  HIS84       0.1621
      3  C        133.3180    6.6590    5.6850 C.2    84  HIS84       0.2264
      4  O        133.0000    6.1260    4.6180 O.2    84  HIS84      -0.2867
      5  CB       133.5500    9.0470    5.0550 C.3    84  HIS84       0.0745
      6  CG       133.5540    8.9870    3.5630 C.ar   84  HIS84       0.0817
      7  ND1      134.5150    9.6110    2.7980 N.ar   84  HIS84      -0.2268
      8  CD2      132.7530    8.3270    2.6930 C.ar   84  HIS84       0.1154
      9  CE1      134.3030    9.3400    1.5210 C.ar   84  HIS84       0.1986
     10  NE2      133.2400    8.5620    1.4300 N.ar   84  HIS84      -0.2212
     11  N        129.7830    4.3790    6.0740 N.3    86  ALA86      -0.1231
     12  CA       128.4710    4.6040    5.4580 C.3    86  ALA86       0.1694
     13  C        127.6200    3.3320    5.4640 C.2    86  ALA86       0.2592
     14  O        128.1690    2.2290    5.4750 O.2    86  ALA86      -0.2718
     15  CB       128.6530    5.1020    4.0330 C.3    86  ALA86       0.0304
     16  N        126.2910    3.4610    5.4690 N.am   87  ASP87      -0.1974
     17  CA       125.5780    4.7410    5.4740 C.3    87  ASP87       0.1709
     18  C        124.7570    4.9150    6.7640 C.2    87  ASP87       0.2293
     19  O        124.4670    6.0390    7.1920 O.2    87  ASP87      -0.2864
     20  CB       124.6160    4.8240    4.2770 C.3    87  ASP87       0.1436
     21  CG       125.3040    5.2330    2.9830 C.2    87  ASP87       0.3671
     22  OD1      125.8090    4.3460    2.2490 O.co2  87  ASP87      -0.2456
     23  OD2      125.3340    6.4540    2.7090 O.co2  87  ASP87      -0.2456
     24  N        119.7700    1.8450   -2.3290 N.3   103  GLY103     -0.1210
     25  CA       120.6790    1.7110   -1.2050 C.3   103  GLY103      0.1956
     26  C        121.3980    3.0100   -0.9300 C.2   103  GLY103      0.2612
     27  O        120.8510    4.0790   -1.1780 O.2   103  GLY103     -0.2717
     28  N        122.6200    2.9200   -0.4180 N.am  104  GLY104     -0.1942
     29  CA       123.3830    4.1120   -0.1250 C.3   104  GLY104      0.2014
     30  C        122.6710    5.0430    0.8290 C.2   104  GLY104      0.2639
     31  O        122.0810    4.6020    1.8140 O.2   104  GLY104     -0.2714
     32  N        122.7220    6.3370    0.5300 N.am  105  GLY105     -0.1939
     33  CA       122.0880    7.3300    1.3740 C.3   105  GLY105      0.2014
     34  C        120.5960    7.1570    1.5600 C.2   105  GLY105      0.2638
     35  O        120.0050    7.8230    2.4050 O.2   105  GLY105     -0.2714
     36  N        119.9810    6.2730    0.7800 N.am  106  TYR106     -0.1973
     37  CA       118.5490    6.0490    0.9000 C.3   106  TYR106      0.1639
     38  C        118.1860    4.8820    1.8340 C.2   106  TYR106      0.2290
     39  O        117.0050    4.5490    2.0040 O.2   106  TYR106     -0.2864
     40  CB       117.9450    5.8830   -0.4930 C.3   106  TYR106      0.0560
     41  CG       118.0340    7.1590   -1.3150 C.ar  106  TYR106     -0.0198
     42  CD1      117.4280    8.3360   -0.8780 C.ar  106  TYR106     -0.0009
     43  CD2      118.7470    7.1990   -2.5120 C.ar  106  TYR106     -0.0009
     44  CE1      117.5330    9.5240   -1.6100 C.ar  106  TYR106      0.0417
     45  CE2      118.8570    8.3830   -3.2520 C.ar  106  TYR106      0.0417
     46  CZ       118.2480    9.5390   -2.7920 C.ar  106  TYR106      0.1957
     47  OH       118.3600   10.7080   -3.5130 O.3   106  TYR106     -0.2866
     48  N        126.7470    8.7000    7.3530 N.3   126  PHE126     -0.1241
     49  CA       127.3750    9.3580    6.2120 C.3   126  PHE126      0.1605
     50  C        126.6710   10.6650    5.8720 C.2   126  PHE126      0.2264
     51  O        125.4430   10.7350    5.8720 O.2   126  PHE126     -0.2867
     52  CB       127.3390    8.4580    4.9860 C.3   126  PHE126      0.0534
     53  CG       127.9530    9.0830    3.7780 C.ar  126  PHE126     -0.0203
     54  CD1      129.3310    9.0930    3.6120 C.ar  126  PHE126     -0.0042
     55  CD2      127.1550    9.7070    2.8250 C.ar  126  PHE126     -0.0042
     56  CE1      129.9070    9.7180    2.5110 C.ar  126  PHE126     -0.0003
     57  CE2      127.7190   10.3340    1.7230 C.ar  126  PHE126     -0.0003
     58  CZ       129.0970   10.3400    1.5640 C.ar  126  PHE126     -0.0000
     59  N        125.3510   13.0830    3.3330 N.3   128  ASN128     -0.1240
     60  CA       124.9750   13.3200    1.9460 C.3   128  ASN128      0.1653
     61  C        124.7660   14.8130    1.7370 C.2   128  ASN128      0.2266
     62  O        124.8430   15.5990    2.6790 O.2   128  ASN128     -0.2867
     63  CB       123.6870   12.5890    1.5750 C.3   128  ASN128      0.1155
     64  CG       123.8740   11.0980    1.4930 C.2   128  ASN128      0.2627
     65  OD1      123.8410   10.4070    2.5070 O.2   128  ASN128     -0.2716
     66  ND2      124.0860   10.5880    0.2820 N.am  128  ASN128     -0.0877
     67  N        122.2120   16.4350    1.4030 N.3   130  TRP130     -0.1241
     68  CA       121.0560   16.9200    2.1600 C.3   130  TRP130      0.1605
     69  C        121.1590   16.7290    3.6730 C.2   130  TRP130      0.2264
     70  O        120.1920   16.9930    4.3890 O.2   130  TRP130     -0.2867
     71  CB       119.8010   16.2060    1.6610 C.3   130  TRP130      0.0550
     72  CG       119.8890   14.7080    1.8150 C.ar  130  TRP130      0.0003
     73  CD1      119.8010   13.9930    2.9810 C.ar  130  TRP130      0.0946
     74  CD2      120.1430   13.7480    0.7770 C.ar  130  TRP130      0.0152
     75  NE1      119.9840   12.6540    2.7320 N.ar  130  TRP130     -0.2442
     76  CE2      120.1970   12.4730    1.3910 C.ar  130  TRP130      0.0810
     77  CE3      120.3320   13.8390   -0.6110 C.ar  130  TRP130      0.0012
     78  CZ2      120.4310   11.2950    0.6610 C.ar  130  TRP130      0.0191
     79  CZ3      120.5650   12.6630   -1.3400 C.ar  130  TRP130      0.0001
     80  CH2      120.6120   11.4120   -0.7000 C.ar  130  TRP130      0.0015
     81  N        128.2940    1.7640    1.9090 N.3   211  GLY211     -0.1210
     82  CA       128.7330    2.5860    0.7900 C.3   211  GLY211      0.1956
     83  C        128.3010    2.1320   -0.5880 C.2   211  GLY211      0.2611
     84  O        128.4380    0.9640   -0.9390 O.2   211  GLY211     -0.2717
     85  N        127.7720    3.0630   -1.3730 N.am  212  ASP212     -0.1973
     86  CA       127.3400    2.7530   -2.7240 C.3   212  ASP212      0.1709
     87  C        128.5550    2.7870   -3.6550 C.2   212  ASP212      0.2293
     88  O        129.4670    3.5990   -3.4720 O.2   212  ASP212     -0.2864
     89  CB       126.3040    3.7660   -3.1930 C.3   212  ASP212      0.1436
     90  CG       125.7960    3.4660   -4.5890 C.2   212  ASP212      0.3671
     91  OD1      125.1230    2.4270   -4.7680 O.co2 212  ASP212     -0.2456
     92  OD2      126.0780    4.2660   -5.5040 O.co2 212  ASP212     -0.2456
     93  N        129.0280    3.9640   -6.5840 N.3   214  SER214     -0.1202
     94  CA       129.2230    5.2620   -7.2250 C.3   214  SER214      0.2020
     95  C        130.1790    6.1620   -6.4470 C.2   214  SER214      0.2619
     96  O        130.7890    7.0660   -7.0150 O.2   214  SER214     -0.2717
     97  CB       127.8770    5.9820   -7.3760 C.3   214  SER214      0.2103
     98  OG       127.3770    6.4210   -6.1190 O.3   214  SER214     -0.2182
     99  N        130.2990    5.9190   -5.1470 N.am  215  GLY215     -0.1956
    100  CA       131.1760    6.7280   -4.3160 C.3   215  GLY215      0.1869
    101  C        132.6400    6.3940   -4.5160 C.2   215  GLY215      0.2309
    102  O        133.5230    7.1460   -4.0990 O.2   215  GLY215     -0.2863
    103  N        134.5300    4.0580   -3.1310 N.3   217  GLN217     -0.1245
    104  CA       135.2480    3.8640   -1.8770 C.3   217  GLN217      0.1566
    105  C        134.7980    2.5960   -1.1690 C.2   217  GLN217      0.2260
    106  O        133.7280    2.5560   -0.5750 O.2   217  GLN217     -0.2867
    107  CB       135.0420    5.0750   -0.9670 C.3   217  GLN217      0.0367
    108  CG       135.7950    6.2970   -1.4300 C.3   217  GLN217      0.0905
    109  CD       137.2920    6.1010   -1.3550 C.2   217  GLN217      0.2608
    110  OE1      138.0540    6.8420   -1.9690 O.2   217  GLN217     -0.2717
    111  NE2      137.7260    5.1020   -0.5840 N.am  217  GLN217     -0.0878
    112  N        134.0260    2.7810    2.5440 N.3   220  ALA220     -0.1245
    113  CA       132.7840    3.3890    3.0030 C.3   220  ALA220      0.1562
    114  C        131.8130    2.2880    3.4210 C.2   220  ALA220      0.2260
    115  O        130.8370    1.9930    2.7270 O.2   220  ALA220     -0.2867
    116  CB       132.1770    4.2560    1.9030 C.3   220  ALA220      0.0290
@<TRIPOS>BOND
     1    97    94    1
     2    97    98    1
     3    94    93    1
     4    94    95    1
     5    96    95    2
     6    95    99   am
     7    92    90   ar
     8    99   100    1
     9    91    90   ar
    10    90    89    1
    11   101   100    1
    12   101   102    2
    13    87    88    2
    14    87    86    1
    15    47    46    1
    16    45    46   ar
    17    45    43   ar
    18    89    86    1
    19   103   104    1
    20    46    44   ar
    21    86    85    1
    22    43    41   ar
    23    24    25    1
    24   110   109    2
    25   104   105    1
    26   104   107    1
    27    44    42   ar
    28   108   109    1
    29   108   107    1
    30    85    83   am
    31   109   111   am
    32    79    80   ar
    33    79    77   ar
    34    41    42   ar
    35    41    40    1
    36    25    26    1
    37    27    26    2
    38   105   106    2
    39    84    83    2
    40    26    28   am
    41    80    78   ar
    42    77    74   ar
    43    83    82    1
    44    40    37    1
    45    28    29    1
    46    29    30    1
    47    66    64   am
    48    32    30   am
    49    32    33    1
    50    78    76   ar
    51    74    76   ar
    52    74    72   ar
    53    36    37    1
    54    36    34   am
    55    82    81    1
    56    30    31    2
    57    37    38    1
    58    33    34    1
    59    76    75   ar
    60    67    68    1
    61    10     9   ar
    62    10     8   ar
    63    64    63    1
    64    64    65    2
    65     9     7   ar
    66    34    35    2
    67    58    57   ar
    68    58    56   ar
    69    63    60    1
    70    71    72    1
    71    71    68    1
    72    57    55   ar
    73    61    60    1
    74    61    62    2
    75    72    73   ar
    76    38    39    2
    77   116   113    1
    78    60    59    1
    79    68    69    1
    80    22    21   ar
    81    56    54   ar
    82   112   113    1
    83     8     6   ar
    84    23    21   ar
    85   115   114    2
    86    75    73   ar
    87     7     6   ar
    88    55    53   ar
    89    21    20    1
    90   113   114    1
    91     6     5    1
    92    54    53   ar
    93    69    70    2
    94    53    52    1
    95    15    12    1
    96    20    17    1
    97     4     3    2
    98     1     2    1
    99    52    49    1
   100     5     2    1
   101    12    13    1
   102    12    11    1
   103    13    16   am
   104    13    14    2
   105    16    17    1
   106    17    18    1
   107     3     2    1
   108    50    51    2
   109    50    49    1
   110    49    48    1
   111    18    19    2
