@<TRIPOS>MOLECULE
tmp/2du0A00.pdb
 86 79 0 0 0
SMALL
GASTEIGER

@<TRIPOS>ATOM
      1  N        135.1990    7.4660    4.7330 N.3    84  HIS84      -0.1241
      2  CA       133.9380    7.6910    5.4110 C.3    84  HIS84       0.1621
      3  C        133.0190    6.4720    5.5050 C.2    84  HIS84       0.2264
      4  O        132.6500    5.8810    4.4880 O.2    84  HIS84      -0.2867
      5  CB       133.1910    8.8130    4.6880 C.3    84  HIS84       0.0745
      6  CG       133.1990    8.6700    3.1960 C.ar   84  HIS84       0.0817
      7  ND1      134.1460    9.2710    2.3950 N.ar   84  HIS84      -0.2268
      8  CD2      132.3980    7.9650    2.3630 C.ar   84  HIS84       0.1154
      9  CE1      133.9260    8.9450    1.1340 C.ar   84  HIS84       0.1986
     10  NE2      132.8710    8.1540    1.0870 N.ar   84  HIS84      -0.2212
     11  N        129.6240    4.2660    5.8540 N.3    86  ALA86      -0.1231
     12  CA       128.3020    4.4890    5.2580 C.3    86  ALA86       0.1694
     13  C        127.4670    3.2070    5.2940 C.2    86  ALA86       0.2592
     14  O        128.0250    2.1140    5.3400 O.2    86  ALA86      -0.2718
     15  CB       128.4610    4.9680    3.8160 C.3    86  ALA86       0.0304
     16  N        126.1390    3.3210    5.3050 N.am   87  ASP87      -0.1974
     17  CA       125.4190    4.5910    5.3010 C.3    87  ASP87       0.1709
     18  C        124.5690    4.7800    6.5570 C.2    87  ASP87       0.2293
     19  O        124.2250    5.9060    6.9260 O.2    87  ASP87      -0.2864
     20  CB       124.5100    4.6860    4.0730 C.3    87  ASP87       0.1436
     21  CG       125.2420    5.1830    2.8500 C.2    87  ASP87       0.3671
     22  OD1      125.8510    4.3570    2.1410 O.co2  87  ASP87      -0.2456
     23  OD2      125.2200    6.4110    2.6150 O.co2  87  ASP87      -0.2456
     24  N        122.5650    2.7280   -0.4870 N.3   104  GLY104     -0.1210
     25  CA       123.2530    3.9560   -0.1420 C.3   104  GLY104      0.1956
     26  C        122.4760    4.8390    0.8210 C.2   104  GLY104      0.2612
     27  O        121.8780    4.3580    1.7860 O.2   104  GLY104     -0.2717
     28  N        122.4810    6.1390    0.5530 N.am  105  GLY105     -0.1956
     29  CA       121.7920    7.0850    1.4090 C.3   105  GLY105      0.1869
     30  C        120.2940    6.9010    1.5100 C.2   105  GLY105      0.2309
     31  O        119.6410    7.6070    2.2800 O.2   105  GLY105     -0.2863
     32  N        126.5520    8.5380    7.1730 N.3   126  PHE126     -0.1241
     33  CA       127.2120    9.1400    6.0320 C.3   126  PHE126      0.1605
     34  C        126.4820   10.4150    5.6480 C.2   126  PHE126      0.2264
     35  O        125.2550   10.4270    5.5290 O.2   126  PHE126     -0.2867
     36  CB       127.2180    8.1800    4.8490 C.3   126  PHE126      0.0534
     37  CG       127.7780    8.7830    3.6000 C.ar  126  PHE126     -0.0203
     38  CD1      129.1530    8.8630    3.4060 C.ar  126  PHE126     -0.0042
     39  CD2      126.9270    9.2780    2.6130 C.ar  126  PHE126     -0.0042
     40  CE1      129.6700    9.4250    2.2390 C.ar  126  PHE126     -0.0003
     41  CE2      127.4320    9.8400    1.4520 C.ar  126  PHE126     -0.0003
     42  CZ       128.8070    9.9130    1.2590 C.ar  126  PHE126     -0.0000
     43  N        125.1140   12.8060    3.1920 N.3   128  ASN128     -0.1240
     44  CA       124.7320   13.0170    1.8070 C.3   128  ASN128      0.1653
     45  C        124.4970   14.5240    1.6460 C.2   128  ASN128      0.2266
     46  O        124.5520   15.2710    2.6270 O.2   128  ASN128     -0.2867
     47  CB       123.4660   12.2190    1.4690 C.3   128  ASN128      0.1155
     48  CG       123.7130   10.7140    1.3180 C.2   128  ASN128      0.2627
     49  OD1      123.6460    9.9620    2.2840 O.2   128  ASN128     -0.2716
     50  ND2      124.0010   10.2700    0.1190 N.am  128  ASN128     -0.0877
     51  N        128.1790    1.6710    1.7390 N.3   211  GLY211     -0.1210
     52  CA       128.5860    2.5050    0.6210 C.3   211  GLY211      0.1956
     53  C        128.1540    2.0330   -0.7530 C.2   211  GLY211      0.2611
     54  O        128.2820    0.8580   -1.0900 O.2   211  GLY211     -0.2717
     55  N        127.6300    2.9580   -1.5500 N.am  212  ASP212     -0.1973
     56  CA       127.1930    2.6410   -2.9010 C.3   212  ASP212      0.1709
     57  C        128.4100    2.6730   -3.8370 C.2   212  ASP212      0.2293
     58  O        129.2890    3.5330   -3.7050 O.2   212  ASP212     -0.2864
     59  CB       126.1570    3.6520   -3.3830 C.3   212  ASP212      0.1436
     60  CG       125.5070    3.2260   -4.6750 C.2   212  ASP212      0.3671
     61  OD1      124.6270    2.3360   -4.6230 O.co2 212  ASP212     -0.2456
     62  OD2      125.8860    3.7580   -5.7400 O.co2 212  ASP212     -0.2456
     63  N        128.8650    3.7750   -6.7270 N.3   214  SER214     -0.1202
     64  CA       129.0300    5.0650   -7.3870 C.3   214  SER214      0.2020
     65  C        129.9790    5.9980   -6.6300 C.2   214  SER214      0.2619
     66  O        130.5640    6.9040   -7.2190 O.2   214  SER214     -0.2717
     67  CB       127.6680    5.7370   -7.5740 C.3   214  SER214      0.2103
     68  OG       127.0770    6.0430   -6.3260 O.3   214  SER214     -0.2182
     69  N        130.1320    5.7710   -5.3290 N.am  215  GLY215     -0.1956
     70  CA       131.0140    6.6000   -4.5260 C.3   215  GLY215      0.1869
     71  C        132.4650    6.2070   -4.7060 C.2   215  GLY215      0.2309
     72  O        133.3660    6.9140   -4.2560 O.2   215  GLY215     -0.2863
     73  N        134.2830    4.2320   -3.2400 N.3   217  GLN217     -0.1245
     74  CA       135.0340    4.0360   -2.0070 C.3   217  GLN217      0.1566
     75  C        134.6240    2.7280   -1.3520 C.2   217  GLN217      0.2260
     76  O        133.5460    2.6100   -0.7730 O.2   217  GLN217     -0.2867
     77  CB       134.8210    5.2210   -1.0620 C.3   217  GLN217      0.0367
     78  CG       135.4260    6.5110   -1.5940 C.3   217  GLN217      0.0905
     79  CD       136.9510    6.4990   -1.5780 C.2   217  GLN217      0.2608
     80  OE1      137.5810    5.4450   -1.6780 O.2   217  GLN217     -0.2717
     81  NE2      137.5490    7.6810   -1.4630 N.am  217  GLN217     -0.0878
     82  N        133.7820    2.7010    2.3690 N.3   220  ALA220     -0.1245
     83  CA       132.5280    3.2930    2.8050 C.3   220  ALA220      0.1562
     84  C        131.5940    2.1680    3.2430 C.2   220  ALA220      0.2260
     85  O        130.6680    1.7960    2.5250 O.2   220  ALA220     -0.2867
     86  CB       131.9070    4.0780    1.6660 C.3   220  ALA220      0.0290
@<TRIPOS>BOND
     1    67    64    1
     2    67    68    1
     3    64    63    1
     4    64    65    1
     5    66    65    2
     6    65    69   am
     7    62    60   ar
     8    69    70    1
     9    71    70    1
    10    71    72    2
    11    60    61   ar
    12    60    59    1
    13    57    58    2
    14    57    56    1
    15    59    56    1
    16    73    74    1
    17    56    55    1
    18    74    75    1
    19    74    77    1
    20    80    79    2
    21    78    79    1
    22    78    77    1
    23    79    81   am
    24    55    53   am
    25    75    76    2
    26    54    53    2
    27    53    52    1
    28    24    25    1
    29    25    26    1
    30    50    48   am
    31    28    26   am
    32    28    29    1
    33    52    51    1
    34    26    27    2
    35    10     9   ar
    36    10     8   ar
    37     9     7   ar
    38    42    41   ar
    39    42    40   ar
    40    48    47    1
    41    48    49    2
    42    29    30    1
    43    41    39   ar
    44    47    44    1
    45    30    31    2
    46    45    44    1
    47    45    46    2
    48    86    83    1
    49    44    43    1
    50    22    21   ar
    51    40    38   ar
    52     8     6   ar
    53    82    83    1
    54     7     6   ar
    55    85    84    2
    56    39    37   ar
    57    23    21   ar
    58    83    84    1
    59    21    20    1
    60     6     5    1
    61    38    37   ar
    62    37    36    1
    63    15    12    1
    64    20    17    1
    65     4     3    2
    66     5     2    1
    67     1     2    1
    68    36    33    1
    69    12    13    1
    70    12    11    1
    71    13    16   am
    72    13    14    2
    73    17    16    1
    74    17    18    1
    75     2     3    1
    76    35    34    2
    77    34    33    1
    78    33    32    1
    79    18    19    2
