@<TRIPOS>MOLECULE
tmp/2du1A00.pdb
 116 111 0 0 0
SMALL
GASTEIGER

@<TRIPOS>ATOM
      1  N        135.3360    7.6710    4.8110 N.3    84  HIS84      -0.1241
      2  CA       134.0770    7.9140    5.5070 C.3    84  HIS84       0.1621
      3  C        133.1450    6.6890    5.5500 C.2    84  HIS84       0.2264
      4  O        132.8910    6.0500    4.5280 O.2    84  HIS84      -0.2867
      5  CB       133.3590    9.0680    4.8150 C.3    84  HIS84       0.0745
      6  CG       133.3730    8.9630    3.3220 C.ar   84  HIS84       0.0817
      7  ND1      134.0660    9.8500    2.5220 N.ar   84  HIS84      -0.2268
      8  CD2      132.8250    8.0520    2.4840 C.ar   84  HIS84       0.1154
      9  CE1      133.9390    9.4850    1.2580 C.ar   84  HIS84       0.1986
     10  NE2      133.1920    8.3970    1.2060 N.ar   84  HIS84      -0.2212
     11  N        129.5880    4.4460    5.9010 N.3    86  ALA86      -0.1231
     12  CA       128.2830    4.6080    5.2660 C.3    86  ALA86       0.1694
     13  C        127.4980    3.3090    5.3340 C.2    86  ALA86       0.2592
     14  O        128.0860    2.2450    5.3850 O.2    86  ALA86      -0.2718
     15  CB       128.4600    5.0270    3.7980 C.3    86  ALA86       0.0304
     16  N        126.1700    3.3880    5.3400 N.am   87  ASP87      -0.1974
     17  CA       125.4390    4.6500    5.2980 C.3    87  ASP87       0.1709
     18  C        124.6150    4.8810    6.5670 C.2    87  ASP87       0.2293
     19  O        124.2840    6.0220    6.9140 O.2    87  ASP87      -0.2864
     20  CB       124.5110    4.6850    4.0840 C.3    87  ASP87       0.1436
     21  CG       125.1930    5.2270    2.8470 C.2    87  ASP87       0.3671
     22  OD1      125.8470    4.4340    2.1310 O.co2  87  ASP87      -0.2456
     23  OD2      125.0770    6.4520    2.5980 O.co2  87  ASP87      -0.2456
     24  N        119.7890    1.7670   -2.4060 N.3   103  GLY103     -0.1210
     25  CA       120.7400    1.6970   -1.3100 C.3   103  GLY103      0.1956
     26  C        121.3510    3.0430   -0.9870 C.2   103  GLY103      0.2612
     27  O        120.6820    4.0670   -1.1090 O.2   103  GLY103     -0.2717
     28  N        122.6140    3.0450   -0.5710 N.am  104  GLY104     -0.1942
     29  CA       123.2790    4.2880   -0.2330 C.3   104  GLY104      0.2014
     30  C        122.5140    5.1350    0.7710 C.2   104  GLY104      0.2639
     31  O        121.9190    4.6090    1.7170 O.2   104  GLY104     -0.2714
     32  N        122.5180    6.4470    0.5560 N.am  105  GLY105     -0.1939
     33  CA       121.8410    7.3630    1.4510 C.3   105  GLY105      0.2014
     34  C        120.3500    7.1670    1.5700 C.2   105  GLY105      0.2638
     35  O        119.7180    7.8320    2.3860 O.2   105  GLY105     -0.2714
     36  N        119.7770    6.2720    0.7700 N.am  106  TYR106     -0.1973
     37  CA       118.3330    6.0210    0.8460 C.3   106  TYR106      0.1639
     38  C        118.0020    4.8430    1.7530 C.2   106  TYR106      0.2290
     39  O        116.8360    4.4930    1.9340 O.2   106  TYR106     -0.2864
     40  CB       117.7370    5.8080   -0.5430 C.3   106  TYR106      0.0560
     41  CG       117.8330    7.0370   -1.4110 C.ar  106  TYR106     -0.0198
     42  CD1      117.1140    8.1890   -1.1080 C.ar  106  TYR106     -0.0009
     43  CD2      118.6820    7.0650   -2.5110 C.ar  106  TYR106     -0.0009
     44  CE1      117.2470    9.3510   -1.8810 C.ar  106  TYR106      0.0417
     45  CE2      118.8220    8.2140   -3.2890 C.ar  106  TYR106      0.0417
     46  CZ       118.1030    9.3530   -2.9700 C.ar  106  TYR106      0.1957
     47  OH       118.2630   10.4880   -3.7370 O.3   106  TYR106     -0.2866
     48  N        126.5540    8.7770    7.1850 N.3   126  PHE126     -0.1241
     49  CA       127.1970    9.4160    6.0440 C.3   126  PHE126      0.1605
     50  C        126.4900   10.7110    5.6810 C.2   126  PHE126      0.2264
     51  O        125.2620   10.7480    5.5810 O.2   126  PHE126     -0.2867
     52  CB       127.1640    8.5030    4.8240 C.3   126  PHE126      0.0534
     53  CG       127.8140    9.1030    3.6220 C.ar  126  PHE126     -0.0203
     54  CD1      129.1930    9.0280    3.4560 C.ar  126  PHE126     -0.0042
     55  CD2      127.0510    9.7830    2.6710 C.ar  126  PHE126     -0.0042
     56  CE1      129.8080    9.6280    2.3510 C.ar  126  PHE126     -0.0003
     57  CE2      127.6530   10.3840    1.5710 C.ar  126  PHE126     -0.0003
     58  CZ       129.0340   10.3070    1.4090 C.ar  126  PHE126     -0.0000
     59  N        125.1240   13.1240    3.2420 N.3   128  ASN128     -0.1240
     60  CA       124.7300   13.3370    1.8540 C.3   128  ASN128      0.1653
     61  C        124.5070   14.8340    1.6790 C.2   128  ASN128      0.2266
     62  O        124.5520   15.5810    2.6520 O.2   128  ASN128     -0.2867
     63  CB       123.4420   12.5740    1.5160 C.3   128  ASN128      0.1155
     64  CG       123.6150   11.0680    1.4130 C.2   128  ASN128      0.2627
     65  OD1      123.4650   10.3470    2.3990 O.2   128  ASN128     -0.2716
     66  ND2      123.9450   10.5870    0.2160 N.am  128  ASN128     -0.0877
     67  N        121.9530   16.4570    1.3450 N.3   130  TRP130     -0.1241
     68  CA       120.7870   16.9130    2.0990 C.3   130  TRP130      0.1605
     69  C        120.9130   16.7100    3.6090 C.2   130  TRP130      0.2264
     70  O        119.9500   16.9530    4.3410 O.2   130  TRP130     -0.2867
     71  CB       119.5510   16.1710    1.6060 C.3   130  TRP130      0.0550
     72  CG       119.6710   14.7000    1.8130 C.ar  130  TRP130      0.0003
     73  CD1      119.6090   14.0320    3.0030 C.ar  130  TRP130      0.0946
     74  CD2      119.9550   13.7140    0.8140 C.ar  130  TRP130      0.0152
     75  NE1      119.8430   12.6910    2.8090 N.ar  130  TRP130     -0.2442
     76  CE2      120.0580   12.4660    1.4710 C.ar  130  TRP130      0.0810
     77  CE3      120.1370   13.7620   -0.5780 C.ar  130  TRP130      0.0012
     78  CZ2      120.3290   11.2730    0.7880 C.ar  130  TRP130      0.0191
     79  CZ3      120.4070   12.5720   -1.2640 C.ar  130  TRP130      0.0001
     80  CH2      120.5010   11.3480   -0.5780 C.ar  130  TRP130      0.0015
     81  N        128.1820    1.8610    1.7480 N.3   211  GLY211     -0.1210
     82  CA       128.5600    2.7080    0.6250 C.3   211  GLY211      0.1956
     83  C        128.1210    2.2470   -0.7500 C.2   211  GLY211      0.2611
     84  O        128.2070    1.0680   -1.0770 O.2   211  GLY211     -0.2717
     85  N        127.6450    3.1840   -1.5640 N.am  212  ASP212     -0.1973
     86  CA       127.2140    2.8700   -2.9200 C.3   212  ASP212      0.1709
     87  C        128.4400    2.9130   -3.8300 C.2   212  ASP212      0.2293
     88  O        129.3460    3.7330   -3.6300 O.2   212  ASP212     -0.2864
     89  CB       126.1850    3.8890   -3.4160 C.3   212  ASP212      0.1436
     90  CG       125.5680    3.4940   -4.7510 C.2   212  ASP212      0.3671
     91  OD1      124.4550    2.9200   -4.7570 O.co2 212  ASP212     -0.2456
     92  OD2      126.2050    3.7410   -5.7950 O.co2 212  ASP212     -0.2456
     93  N        128.8980    4.1520   -6.6400 N.3   214  SER214     -0.1202
     94  CA       129.0680    5.4650   -7.2530 C.3   214  SER214      0.2020
     95  C        130.0240    6.3570   -6.4720 C.2   214  SER214      0.2619
     96  O        130.5520    7.3230   -7.0130 O.2   214  SER214     -0.2717
     97  CB       127.7090    6.1620   -7.4150 C.3   214  SER214      0.2103
     98  OG       127.0850    6.4210   -6.1670 O.3   214  SER214     -0.2182
     99  N        130.2520    6.0330   -5.2040 N.am  215  GLY215     -0.1956
    100  CA       131.1580    6.8270   -4.3930 C.3   215  GLY215      0.1869
    101  C        132.6030    6.4180   -4.6080 C.2   215  GLY215      0.2309
    102  O        133.5280    7.1020   -4.1740 O.2   215  GLY215     -0.2863
    103  N        134.4610    4.2260   -3.2420 N.3   217  GLN217     -0.1245
    104  CA       135.2140    4.0380   -2.0020 C.3   217  GLN217      0.1566
    105  C        134.7440    2.7530   -1.3260 C.2   217  GLN217      0.2260
    106  O        133.6480    2.6960   -0.7770 O.2   217  GLN217     -0.2867
    107  CB       135.0280    5.2270   -1.0500 C.3   217  GLN217      0.0367
    108  CG       135.6360    6.5450   -1.5350 C.3   217  GLN217      0.0905
    109  CD       137.1470    6.4680   -1.7720 C.2   217  GLN217      0.2608
    110  OE1      137.6140    5.7340   -2.6410 O.2   217  GLN217     -0.2717
    111  NE2      137.9120    7.2330   -1.0000 N.am  217  GLN217     -0.0878
    112  N        133.8850    2.7930    2.3960 N.3   220  ALA220     -0.1245
    113  CA       132.6290    3.4090    2.7940 C.3   220  ALA220      0.1562
    114  C        131.6680    2.3140    3.2530 C.2   220  ALA220      0.2260
    115  O        130.7120    1.9770    2.5530 O.2   220  ALA220     -0.2867
    116  CB       132.0320    4.1710    1.6260 C.3   220  ALA220      0.0290
@<TRIPOS>BOND
     1    97    94    1
     2    97    98    1
     3    94    93    1
     4    94    95    1
     5    96    95    2
     6    95    99   am
     7    92    90   ar
     8    99   100    1
     9    91    90   ar
    10    90    89    1
    11   101   100    1
    12   101   102    2
    13    87    88    2
    14    87    86    1
    15    47    46    1
    16    89    86    1
    17    45    46   ar
    18    45    43   ar
    19   103   104    1
    20    46    44   ar
    21    86    85    1
    22   110   109    2
    23    43    41   ar
    24    24    25    1
    25   104   105    1
    26   104   107    1
    27    44    42   ar
    28   109   108    1
    29   109   111   am
    30    85    83   am
    31   108   107    1
    32    41    42   ar
    33    41    40    1
    34   105   106    2
    35    25    26    1
    36    79    77   ar
    37    79    80   ar
    38    27    26    2
    39    84    83    2
    40    26    28   am
    41    83    82    1
    42    77    74   ar
    43    80    78   ar
    44    28    29    1
    45    40    37    1
    46    29    30    1
    47    66    64   am
    48    32    30   am
    49    32    33    1
    50    82    81    1
    51    36    37    1
    52    36    34   am
    53    30    31    2
    54    78    76   ar
    55    74    76   ar
    56    74    72   ar
    57    37    38    1
    58    10     9   ar
    59    10     8   ar
    60     9     7   ar
    61    67    68    1
    62    58    57   ar
    63    58    56   ar
    64    64    63    1
    65    64    65    2
    66    33    34    1
    67    76    75   ar
    68    63    60    1
    69    34    35    2
    70    57    55   ar
    71    71    72    1
    72    71    68    1
    73   116   113    1
    74    61    60    1
    75    61    62    2
    76    38    39    2
    77    72    73   ar
    78    60    59    1
    79    68    69    1
    80    22    21   ar
    81    56    54   ar
    82   112   113    1
    83     8     6   ar
    84     7     6   ar
    85   115   114    2
    86    23    21   ar
    87    55    53   ar
    88   113   114    1
    89    75    73   ar
    90    21    20    1
    91     6     5    1
    92    54    53   ar
    93    69    70    2
    94    53    52    1
    95    15    12    1
    96    20    17    1
    97     4     3    2
    98     1     2    1
    99     5     2    1
   100    52    49    1
   101    12    13    1
   102    12    11    1
   103    17    16    1
   104    17    18    1
   105    13    16   am
   106    13    14    2
   107     2     3    1
   108    51    50    2
   109    50    49    1
   110    49    48    1
   111    18    19    2
