@<TRIPOS>MOLECULE
tmp/2du2C00.pdb
 216 206 0 0 0
SMALL
GASTEIGER

@<TRIPOS>ATOM
      1  N        -71.9260  -69.7890  -73.4880 N.3    40  TYR40      -0.1227
      2  CA       -72.4740  -69.5460  -72.1560 C.3    40  TYR40       0.1736
      3  C        -71.7000  -70.3300  -71.0680 C.2    40  TYR40       0.2595
      4  O        -71.4060  -69.7970  -69.9800 O.2    40  TYR40      -0.2718
      5  CB       -73.9670  -69.8990  -72.0980 C.3    40  TYR40       0.0548
      6  CG       -74.5590  -69.9460  -70.6900 C.ar   40  TYR40      -0.0200
      7  CD1      -75.0710  -68.7790  -70.0730 C.ar   40  TYR40      -0.0009
      8  CD2      -74.5820  -71.1260  -69.9680 C.ar   40  TYR40      -0.0009
      9  CE1      -75.6160  -68.8050  -68.7500 C.ar   40  TYR40       0.0417
     10  CE2      -75.1290  -71.1640  -68.6460 C.ar   40  TYR40       0.0417
     11  CZ       -75.6490  -70.0090  -68.0670 C.ar   40  TYR40       0.1957
     12  OH       -76.2260  -70.0780  -66.7940 O.3    40  TYR40      -0.2866
     13  N        -71.3900  -71.5980  -71.3560 N.am   41  ILE41      -0.1980
     14  CA       -70.6650  -72.4420  -70.4040 C.3    41  ILE41       0.1595
     15  C        -69.1930  -72.0610  -70.2660 C.2    41  ILE41       0.2287
     16  O        -68.6870  -71.9230  -69.1490 O.2    41  ILE41      -0.2864
     17  CB       -70.7380  -73.9310  -70.7940 C.3    41  ILE41       0.0276
     18  CG1      -72.1860  -74.4410  -70.6320 C.3    41  ILE41       0.0022
     19  CG2      -69.7700  -74.7330  -69.9100 C.3    41  ILE41       0.0022
     20  CD1      -72.4210  -75.8440  -71.2950 C.3    41  ILE41       0.0001
     21  N        -57.4650  -67.0860  -62.7560 N.3    54  ASN54      -0.1240
     22  CA       -57.8270  -68.2830  -62.0080 C.3    54  ASN54       0.1653
     23  C        -56.8980  -69.4430  -62.3560 C.2    54  ASN54       0.2266
     24  O        -56.4850  -70.2290  -61.4880 O.2    54  ASN54      -0.2867
     25  CB       -59.2800  -68.6910  -62.3370 C.3    54  ASN54       0.1155
     26  CG       -60.3210  -67.8170  -61.6440 C.2    54  ASN54       0.2627
     27  OD1      -59.9990  -66.9840  -60.7890 O.2    54  ASN54      -0.2716
     28  ND2      -61.6000  -68.0450  -61.9710 N.am   54  ASN54      -0.0877
     29  N        -69.6750  -78.6410  -58.1240 N.3    92  ALA92      -0.1231
     30  CA       -70.1480  -77.2520  -57.9350 C.3    92  ALA92       0.1679
     31  C        -71.6100  -77.0850  -58.4160 C.2    92  ALA92       0.2434
     32  O        -72.0280  -77.7590  -59.3720 O.2    92  ALA92      -0.2733
     33  CB       -69.2540  -76.2820  -58.7170 C.3    92  ALA92       0.0304
     34  N        -72.3660  -76.1400  -57.8130 N.am   93  PRO93      -0.2718
     35  CA       -73.7000  -75.8710  -58.3700 C.3    93  PRO93       0.1535
     36  C        -73.5660  -75.1520  -59.7080 C.2    93  PRO93       0.2598
     37  O        -72.8400  -74.1180  -59.8120 O.2    93  PRO93      -0.2715
     38  CB       -74.3610  -74.9860  -57.2950 C.3    93  PRO93       0.0310
     39  CG       -73.2370  -74.3170  -56.5670 C.3    93  PRO93       0.0237
     40  CD       -72.0770  -75.3080  -56.6210 C.3    93  PRO93       0.0939
     41  N        -74.1930  -75.7120  -60.7440 N.am   94  ILE94      -0.1964
     42  CA       -74.0890  -75.1660  -62.0960 C.3    94  ILE94       0.1727
     43  C        -75.5070  -75.1450  -62.7320 C.2    94  ILE94       0.2616
     44  O        -76.2440  -76.1530  -62.6890 O.2    94  ILE94      -0.2715
     45  CB       -73.0360  -75.9290  -62.9670 C.3    94  ILE94       0.0290
     46  CG1      -71.5940  -75.5090  -62.5860 C.3    94  ILE94       0.0022
     47  CG2      -73.3410  -75.7920  -64.4670 C.3    94  ILE94       0.0023
     48  CD1      -70.5080  -76.0470  -63.4970 C.3    94  ILE94       0.0001
     49  N        -75.8710  -73.9870  -63.2620 N.am   95  ALA95      -0.1963
     50  CA       -77.1430  -73.7910  -63.9500 C.3    95  ALA95       0.1728
     51  C        -76.8560  -74.0120  -65.3700 C.2    95  ALA95       0.2616
     52  O        -76.9580  -73.0380  -66.1700 O.2    95  ALA95      -0.2715
     53  CB       -77.5660  -72.3410  -63.8750 C.3    95  ALA95       0.0334
     54  N        -76.4370  -75.1630  -65.7920 N.am   96  ALA96      -0.1977
     55  CA       -76.4640  -75.2190  -67.2250 C.3    96  ALA96       0.1597
     56  C        -77.2940  -76.3720  -67.8310 C.2    96  ALA96       0.2287
     57  O        -77.6830  -76.2230  -68.9480 O.2    96  ALA96      -0.2864
     58  CB       -74.9770  -75.0500  -67.9600 C.3    96  ALA96       0.0319
     59  N        -78.1840  -76.5060  -58.4280 N.3   122  SER122     -0.1217
     60  CA       -78.3920  -75.0710  -58.6240 C.3   122  SER122      0.1889
     61  C        -79.8810  -74.7740  -58.6050 C.2   122  SER122      0.2288
     62  O        -80.6740  -75.5380  -59.1860 O.2   122  SER122     -0.2866
     63  CB       -77.8540  -74.6540  -59.9880 C.3   122  SER122      0.2089
     64  OG       -78.3350  -73.3650  -60.3420 O.3   122  SER122     -0.2183
     65  N        -81.0680  -72.7290  -60.3790 N.3   124  TYR124     -0.1241
     66  CA       -81.3400  -72.4920  -61.7980 C.3   124  TYR124      0.1605
     67  C        -81.1910  -73.7970  -62.6400 C.2   124  TYR124      0.2264
     68  O        -80.8880  -73.7540  -63.8590 O.2   124  TYR124     -0.2867
     69  CB       -80.4490  -71.3860  -62.3590 C.3   124  TYR124      0.0534
     70  CG       -80.6890  -69.9530  -61.8390 C.ar  124  TYR124     -0.0201
     71  CD1      -81.7080  -69.6560  -60.9480 C.ar  124  TYR124     -0.0009
     72  CD2      -79.8980  -68.9070  -62.2960 C.ar  124  TYR124     -0.0009
     73  CE1      -81.9190  -68.3330  -60.4710 C.ar  124  TYR124      0.0417
     74  CE2      -80.0930  -67.5750  -61.8450 C.ar  124  TYR124      0.0417
     75  CZ       -81.0960  -67.3010  -60.9210 C.ar  124  TYR124      0.1957
     76  OH       -81.2770  -65.9920  -60.4900 O.3   124  TYR124     -0.2866
     77  N        -78.2050  -75.3760  -53.7220 N.3   144  GLN144     -0.1245
     78  CA       -77.7970  -73.9790  -53.8330 C.3   144  GLN144      0.1566
     79  C        -78.9700  -73.0490  -54.1400 C.2   144  GLN144      0.2260
     80  O        -79.6110  -73.2050  -55.1790 O.2   144  GLN144     -0.2867
     81  CB       -76.6930  -73.8500  -54.8930 C.3   144  GLN144      0.0367
     82  CG       -76.2090  -72.4240  -55.1400 C.3   144  GLN144      0.0905
     83  CD       -77.0150  -71.6900  -56.1950 C.2   144  GLN144      0.2608
     84  OE1      -77.2470  -72.2040  -57.2970 O.2   144  GLN144     -0.2717
     85  NE2      -77.4610  -70.4810  -55.8590 N.am  144  GLN144     -0.0878
     86  N        -80.5990  -69.3990  -55.1480 N.3   146  TYR146     -0.1241
     87  CA       -80.6380  -67.9910  -55.5630 C.3   146  TYR146      0.1605
     88  C        -81.9300  -67.5110  -54.9560 C.2   146  TYR146      0.2264
     89  O        -83.0260  -68.0340  -55.2890 O.2   146  TYR146     -0.2867
     90  CB       -80.6670  -67.8560  -57.0930 C.3   146  TYR146      0.0534
     91  CG       -79.2950  -67.9750  -57.7200 C.ar  146  TYR146     -0.0201
     92  CD1      -78.2620  -67.1020  -57.3540 C.ar  146  TYR146     -0.0009
     93  CD2      -79.0210  -68.9650  -58.6910 C.ar  146  TYR146     -0.0009
     94  CE1      -77.0110  -67.2200  -57.8990 C.ar  146  TYR146      0.0417
     95  CE2      -77.7580  -69.0810  -59.2610 C.ar  146  TYR146      0.0417
     96  CZ       -76.7710  -68.1920  -58.8650 C.ar  146  TYR146      0.1957
     97  OH       -75.5370  -68.3140  -59.4240 O.3   146  TYR146     -0.2866
     98  N        -75.5110  -68.5490  -52.6160 N.3   172  THR172     -0.1218
     99  CA       -74.6280  -67.8860  -53.5800 C.3   172  THR172      0.1862
    100  C        -74.9680  -66.3920  -53.5270 C.2   172  THR172      0.2287
    101  O        -76.0780  -65.9630  -53.8960 O.2   172  THR172     -0.2866
    102  CB       -74.7730  -68.4450  -54.9880 C.3   172  THR172      0.1770
    103  OG1      -74.4820  -69.8530  -54.9550 O.3   172  THR172     -0.2211
    104  CG2      -73.7760  -67.7340  -55.9780 C.3   172  THR172      0.0375
    105  N        -71.3590  -68.6640  -50.5040 N.3   241  LYS241     -0.1245
    106  CA       -70.5250  -68.9080  -51.6700 C.3   241  LYS241      0.1561
    107  C        -70.3260  -67.6110  -52.4820 C.2   241  LYS241      0.2260
    108  O        -71.2700  -66.8340  -52.6880 O.2   241  LYS241     -0.2867
    109  CB       -71.1440  -70.0330  -52.5450 C.3   241  LYS241      0.0271
    110  CG       -70.5870  -70.1640  -53.9650 C.3   241  LYS241      0.0035
    111  CD       -71.0240  -71.5170  -54.5890 C.3   241  LYS241      0.0206
    112  CE       -70.4790  -71.7520  -55.9360 C.3   241  LYS241      0.1093
    113  NZ       -71.0400  -70.8290  -56.9550 N.3   241  LYS241     -0.1314
    114  N        -64.8400  -68.5720  -53.8520 N.3   263  SER263     -0.1217
    115  CA       -65.2140  -68.7140  -55.2550 C.3   263  SER263      0.1889
    116  C        -65.2370  -67.3550  -55.8900 C.2   263  SER263      0.2288
    117  O        -65.5660  -66.3960  -55.2130 O.2   263  SER263     -0.2866
    118  CB       -66.6530  -69.2850  -55.3140 C.3   263  SER263      0.2089
    119  OG       -67.0770  -69.4450  -56.6540 O.3   263  SER263     -0.2183
    120  N        -66.9080  -67.5620  -58.9660 N.3   265  HIS265     -0.1226
    121  CA       -68.0090  -67.9830  -59.8540 C.3   265  HIS265      0.1752
    122  C        -67.3950  -68.3470  -61.1930 C.2   265  HIS265      0.2596
    123  O        -67.9620  -68.0630  -62.2240 O.2   265  HIS265     -0.2718
    124  CB       -69.0340  -66.8240  -60.0220 C.3   265  HIS265      0.0759
    125  CG       -70.4600  -67.2630  -60.2450 C.ar  265  HIS265      0.0818
    126  ND1      -71.4280  -67.1670  -59.2630 N.ar  265  HIS265     -0.2268
    127  CD2      -71.0880  -67.7750  -61.3340 C.ar  265  HIS265      0.1154
    128  CE1      -72.5860  -67.6030  -59.7350 C.ar  265  HIS265      0.1986
    129  NE2      -72.4090  -67.9850  -60.9880 N.ar  265  HIS265     -0.2212
    130  N        -66.2010  -68.9530  -61.1720 N.am  266  GLY266     -0.1957
    131  CA       -65.4850  -69.2580  -62.3960 C.3   266  GLY266      0.1869
    132  C        -65.2220  -68.0490  -63.2690 C.2   266  GLY266      0.2309
    133  O        -65.1660  -68.1660  -64.5420 O.2   266  GLY266     -0.2863
    134  N        -67.1420  -65.5680  -63.8850 N.3   268  ARG268     -0.1245
    135  CA       -68.3350  -65.1840  -64.6240 C.3   268  ARG268      0.1563
    136  C        -69.0080  -63.9610  -64.0310 C.2   268  ARG268      0.2260
    137  O        -70.0100  -63.4520  -64.5760 O.2   268  ARG268     -0.2867
    138  CB       -69.3470  -66.3710  -64.5810 C.3   268  ARG268      0.0307
    139  CG       -68.7600  -67.6200  -65.2580 C.3   268  ARG268      0.0489
    140  CD       -69.5170  -68.8800  -64.8710 C.3   268  ARG268      0.2205
    141  NE       -70.8530  -68.9810  -65.4840 N.pl3 268  ARG268     -0.0865
    142  CZ       -71.0400  -69.3560  -66.7500 C.cat 268  ARG268      0.5346
    143  NH1      -72.2650  -69.4740  -67.2190 N.pl3 268  ARG268      0.1354
    144  NH2      -69.9920  -69.6330  -67.5460 N.pl3 268  ARG268      0.1354
    145  N        -63.4150  -73.0910  -54.9310 N.3   296  ASP296     -0.1225
    146  CA       -63.5230  -73.3000  -56.3620 C.3   296  ASP296      0.1805
    147  C        -63.0340  -72.1150  -57.1840 C.2   296  ASP296      0.2598
    148  O        -62.6900  -71.0440  -56.6330 O.2   296  ASP296     -0.2718
    149  CB       -64.9380  -73.8060  -56.8120 C.3   296  ASP296      0.1424
    150  CG       -65.9790  -72.7140  -56.8960 C.2   296  ASP296      0.3668
    151  OD1      -65.6320  -71.5440  -57.2250 O.co2 296  ASP296     -0.2456
    152  OD2      -67.1820  -73.0170  -56.6290 O.co2 296  ASP296     -0.2456
    153  N        -63.0100  -72.3580  -58.4900 N.am  297  SER297     -0.1938
    154  CA       -62.7990  -71.4090  -59.5880 C.3   297  SER297      0.2055
    155  C        -61.4090  -71.6090  -60.1450 C.2   297  SER297      0.2644
    156  O        -60.4560  -70.9230  -59.7740 O.2   297  SER297     -0.2714
    157  CB       -63.0520  -69.9320  -59.2010 C.3   297  SER297      0.2130
    158  OG       -64.3920  -69.7420  -58.7580 O.3   297  SER297     -0.2179
    159  N        -61.3190  -72.5370  -61.0830 N.am  298  GLY298     -0.1939
    160  CA       -60.1020  -72.7700  -61.8170 C.3   298  GLY298      0.2014
    161  C        -59.4720  -74.1380  -61.6330 C.2   298  GLY298      0.2639
    162  O        -58.4100  -74.3880  -62.1950 O.2   298  GLY298     -0.2714
    163  N        -60.0800  -75.0050  -60.8320 N.am  299  VAL299     -0.1963
    164  CA       -59.4970  -76.3340  -60.5690 C.3   299  VAL299      0.1727
    165  C        -59.5210  -77.2190  -61.8460 C.2   299  VAL299      0.2616
    166  O        -60.5980  -77.5450  -62.3650 O.2   299  VAL299     -0.2715
    167  CB       -60.2010  -77.0200  -59.3780 C.3   299  VAL299      0.0290
    168  CG1      -59.6280  -78.4250  -59.1130 C.3   299  VAL299      0.0023
    169  CG2      -60.0280  -76.1990  -58.1220 C.3   299  VAL299      0.0023
    170  N        -58.3430  -77.5970  -62.3560 N.am  300  ARG300     -0.1977
    171  CA       -58.2560  -78.3770  -63.6160 C.3   300  ARG300      0.1597
    172  C        -57.4310  -79.6630  -63.4900 C.2   300  ARG300      0.2287
    173  O        -57.4840  -80.5300  -64.3640 O.2   300  ARG300     -0.2864
    174  CB       -57.6790  -77.5290  -64.7830 C.3   300  ARG300      0.0334
    175  CG       -58.5370  -76.2800  -65.2130 C.3   300  ARG300      0.0492
    176  CD       -59.9050  -76.7770  -65.8050 C.3   300  ARG300      0.2205
    177  NE       -60.7660  -75.6690  -66.2240 N.pl3 300  ARG300     -0.0865
    178  CZ       -61.5560  -74.9780  -65.4180 C.cat 300  ARG300      0.5346
    179  NH1      -61.6040  -75.2690  -64.1230 N.pl3 300  ARG300      0.1354
    180  NH2      -62.3020  -73.9840  -65.9170 N.pl3 300  ARG300      0.1354
    181  N        -64.5180  -77.6920  -55.2480 N.3   317  ALA317     -0.1231
    182  CA       -65.6750  -78.0200  -56.1040 C.3   317  ALA317      0.1694
    183  C        -65.2620  -77.9370  -57.5730 C.2   317  ALA317      0.2592
    184  O        -64.5520  -76.9920  -57.9720 O.2   317  ALA317     -0.2718
    185  CB       -66.8320  -77.0760  -55.8260 C.3   317  ALA317      0.0304
    186  N        -65.7310  -78.9030  -58.3770 N.am  318  LEU318     -0.1966
    187  CA       -65.4370  -78.9610  -59.8170 C.3   318  LEU318      0.1728
    188  C        -66.6220  -78.4660  -60.6440 C.2   318  LEU318      0.2617
    189  O        -67.7740  -78.7070  -60.2850 O.2   318  LEU318     -0.2715
    190  CB       -65.1110  -80.3840  -60.2490 C.3   318  LEU318      0.0311
    191  CG       -64.0700  -81.1040  -59.3880 C.3   318  LEU318      0.0022
    192  CD1      -63.9630  -82.5700  -59.8930 C.3   318  LEU318      0.0001
    193  CD2      -62.7250  -80.3440  -59.4210 C.3   318  LEU318      0.0001
    194  N        -66.3200  -77.7640  -61.7470 N.am  319  GLY319     -0.1940
    195  CA       -67.3400  -77.1520  -62.5740 C.3   319  GLY319      0.2014
    196  C        -67.2100  -77.4730  -64.0550 C.2   319  GLY319      0.2638
    197  O        -67.6390  -78.5510  -64.5180 O.2   319  GLY319     -0.2714
    198  N        -66.6160  -76.5420  -64.8110 N.am  320  ARG320     -0.1977
    199  CA       -66.5560  -76.6300  -66.2600 C.3   320  ARG320      0.1597
    200  C        -66.0240  -77.9870  -66.7770 C.2   320  ARG320      0.2287
    201  O        -66.5950  -78.5270  -67.7280 O.2   320  ARG320     -0.2864
    202  CB       -65.7580  -75.4700  -66.8690 C.3   320  ARG320      0.0334
    203  CG       -66.4980  -74.1030  -66.8460 C.3   320  ARG320      0.0492
    204  CD       -65.6180  -73.0300  -67.4940 C.3   320  ARG320      0.2205
    205  NE       -66.2550  -71.7050  -67.5510 N.pl3 320  ARG320     -0.0865
    206  CZ       -66.0000  -70.6970  -66.7160 C.cat 320  ARG320      0.5346
    207  NH1      -65.1260  -70.8540  -65.7070 N.pl3 320  ARG320      0.1354
    208  NH2      -66.6050  -69.5230  -66.8830 N.pl3 320  ARG320      0.1354
    209  N        -68.8610  -80.5040  -66.6970 N.3   323  LEU323     -0.1245
    210  CA       -69.8820  -80.1700  -67.7090 C.3   323  LEU323      0.1561
    211  C        -69.3870  -80.4230  -69.1400 C.2   323  LEU323      0.2260
    212  O        -70.1480  -80.8670  -70.0110 O.2   323  LEU323     -0.2867
    213  CB       -70.3310  -78.7150  -67.5350 C.3   323  LEU323      0.0270
    214  CG       -71.7600  -78.2990  -67.9300 C.3   323  LEU323      0.0019
    215  CD1      -72.9080  -79.0880  -67.2710 C.3   323  LEU323      0.0001
    216  CD2      -71.9490  -76.7710  -67.6360 C.3   323  LEU323      0.0001
@<TRIPOS>BOND
     1     1     2    1
     2     2     5    1
     3     2     3    1
     4     5     6    1
     5    13     3   am
     6    13    14    1
     7    20    18    1
     8     3     4    2
     9    17    18    1
    10    17    14    1
    11    17    19    1
    12     6     7   ar
    13     6     8   ar
    14    14    15    1
    15    15    16    2
    16     7     9   ar
    17   212   211    2
    18     8    10   ar
    19   211   210    1
    20    57    56    2
    21     9    11   ar
    22    10    11   ar
    23    11    12    1
    24    58    55    1
    25   214   216    1
    26   214   213    1
    27   214   215    1
    28    56    55    1
    29   201   200    2
    30   210   213    1
    31   210   209    1
    32   205   204    1
    33   205   206    2
    34   144   142    1
    35   204   203    1
    36    55    54    1
    37   143   142    1
    38   208   206    1
    39   202   203    1
    40   202   199    1
    41   200   199    1
    42   142   141    2
    43   206   207    1
    44   199   198    1
    45   177   176    1
    46   177   178    2
    47    52    51    2
    48   180   178    1
    49   176   175    1
    50    54    51   am
    51   141   140    1
    52   178   179    1
    53    51    50    1
    54   139   140    1
    55   139   138    1
    56   175   174    1
    57   198   196   am
    58   174   171    1
    59   135   138    1
    60   135   136    1
    61   135   134    1
    62   137   136    2
    63   133   132    2
    64   197   196    2
    65    47    45    1
    66   173   172    2
    67   196   195    1
    68    50    53    1
    69    50    49    1
    70    68    67    2
    71   171   172    1
    72   171   170    1
    73    48    46    1
    74   132   131    1
    75    49    43   am
    76    45    46    1
    77    45    42    1
    78    21    22    1
    79    43    44    2
    80    43    42    1
    81    67    66    1
    82   195   194    1
    83   131   130    1
    84   166   165    2
    85    69    70    1
    86    69    66    1
    87   170   165   am
    88    23    22    1
    89    23    24    2
    90    25    22    1
    91    25    26    1
    92    72    74   ar
    93    72    70   ar
    94   123   122    2
    95   162   161    2
    96    42    41    1
    97    28    26   am
    98   165   164    1
    99    74    75   ar
   100    70    71   ar
   101   160   161    1
   102   160   159    1
   103    66    65    1
   104   194   188   am
   105    26    27    2
   106   161   163   am
   107   127   129   ar
   108   127   125   ar
   109   122   130   am
   110   122   121    1
   111   159   155   am
   112   129   128   ar
   113    71    73   ar
   114    75    76    1
   115    75    73   ar
   116   163   164    1
   117    41    36   am
   118   188   189    2
   119   188   187    1
   120   164   167    1
   121    64    63    1
   122   190   187    1
   123   190   191    1
   124   125   124    1
   125   125   126   ar
   126   155   156    2
   127   155   154    1
   128   124   121    1
   129    63    60    1
   130   192   191    1
   131   121   120    1
   132   187   186    1
   133    37    36    2
   134   128   126   ar
   135    36    35    1
   136   154   157    1
   137   154   153    1
   138    97    96    1
   139   193   191    1
   140   167   168    1
   141   167   169    1
   142    32    31    2
   143    95    96   ar
   144    95    93   ar
   145   157   158    1
   146    62    61    2
   147    96    94   ar
   148    33    30    1
   149    93    91   ar
   150    60    61    1
   151    60    59    1
   152   153   147   am
   153    31    30    1
   154    31    34   am
   155   186   183   am
   156    35    34    1
   157    35    38    1
   158    29    30    1
   159   184   183    2
   160    94    92   ar
   161    34    40    1
   162    91    92   ar
   163    91    90    1
   164   183   182    1
   165    84    83    2
   166    38    39    1
   167   151   150   ar
   168   147   148    2
   169   147   146    1
   170    90    87    1
   171   113   112    1
   172   150   149    1
   173   150   152   ar
   174   149   146    1
   175   119   118    1
   176    40    39    1
   177   146   145    1
   178    83    85   am
   179    83    82    1
   180   182   185    1
   181   182   181    1
   182   104   102    1
   183   112   111    1
   184   116   115    1
   185   116   117    2
   186    87    86    1
   187    87    88    1
   188   118   115    1
   189    89    88    2
   190   115   114    1
   191    80    79    2
   192    82    81    1
   193   102   103    1
   194   102    99    1
   195    81    78    1
   196   111   110    1
   197    79    78    1
   198   110   109    1
   199   101   100    2
   200    78    77    1
   201    99   100    1
   202    99    98    1
   203   108   107    2
   204   109   106    1
   205   107   106    1
   206   106   105    1
