@<TRIPOS>MOLECULE
tmp/2du5B00.pdb
 137 131 0 0 0
SMALL
GASTEIGER

@<TRIPOS>ATOM
      1  N         23.1570   87.2100  -28.4700 N.3    93  ARG93      -0.1245
      2  CA        23.7800   85.9240  -28.2020 C.3    93  ARG93       0.1563
      3  C         23.3000   85.4050  -26.8470 C.2    93  ARG93       0.2260
      4  O         23.7170   84.3360  -26.3970 O.2    93  ARG93      -0.2867
      5  CB        25.3100   86.0630  -28.2110 C.3    93  ARG93       0.0307
      6  CG        25.8920   86.8850  -27.0620 C.3    93  ARG93       0.0489
      7  CD        27.4180   86.9820  -27.1460 C.3    93  ARG93       0.2205
      8  NE        28.0100   87.5400  -25.9290 N.pl3  93  ARG93      -0.0865
      9  CZ        29.3140   87.7420  -25.7510 C.cat  93  ARG93       0.5346
     10  NH1       29.7620   88.2520  -24.6090 N.pl3  93  ARG93       0.1354
     11  NH2       30.1720   87.4390  -26.7150 N.pl3  93  ARG93       0.1354
     12  N         28.2070   85.7080  -19.2100 N.3   186  HIS186     -0.1226
     13  CA        29.4880   85.5680  -18.5250 C.3   186  HIS186      0.1752
     14  C         29.4350   86.1560  -17.1110 C.2   186  HIS186      0.2596
     15  O         28.6870   87.0870  -16.8370 O.2   186  HIS186     -0.2718
     16  CB        30.6190   86.2170  -19.3370 C.3   186  HIS186      0.0759
     17  CG        30.4610   87.6910  -19.5520 C.ar  186  HIS186      0.0818
     18  ND1       31.4690   88.4720  -20.0760 N.ar  186  HIS186     -0.2268
     19  CD2       29.4180   88.5250  -19.3290 C.ar  186  HIS186      0.1154
     20  CE1       31.0540   89.7220  -20.1650 C.ar  186  HIS186      0.1986
     21  NE2       29.8130   89.7820  -19.7180 N.ar  186  HIS186     -0.2212
     22  N         30.2290   85.5960  -16.2110 N.am  187  MET187     -0.1965
     23  CA        30.2540   86.0520  -14.8280 C.3   187  MET187      0.1736
     24  C         30.3380   87.5610  -14.6930 C.2   187  MET187      0.2617
     25  O         29.8500   88.1250  -13.7220 O.2   187  MET187     -0.2715
     26  CB        31.4380   85.4330  -14.0930 C.3   187  MET187      0.0427
     27  CG        31.3030   85.4680  -12.5980 C.3   187  MET187      0.0599
     28  SD        29.8590   84.5460  -12.1480 S.3   187  MET187     -0.1393
     29  CE        30.3370   82.9120  -12.6810 C.3   187  MET187      0.0692
     30  N         30.9640   88.2180  -15.6590 N.am  188  THR188     -0.1951
     31  CA        31.1030   89.6630  -15.5910 C.3   188  THR188      0.1897
     32  C         29.7950   90.4190  -15.4190 C.2   188  THR188      0.2313
     33  O         29.7230   91.3590  -14.6310 O.2   188  THR188     -0.2863
     34  CB        31.8060   90.2130  -16.8190 C.3   188  THR188      0.1794
     35  OG1       33.1700   89.7840  -16.8110 O.3   188  THR188     -0.2208
     36  CG2       31.7660   91.7220  -16.8080 C.3   188  THR188      0.0378
     37  N         29.1080   90.5710  -11.9140 N.3   191  TRP191     -0.1241
     38  CA        30.1160   91.1690  -11.0530 C.3   191  TRP191      0.1605
     39  C         29.8060   92.6180  -10.7190 C.2   191  TRP191      0.2264
     40  O         29.9970   93.0410   -9.5800 O.2   191  TRP191     -0.2867
     41  CB        31.5080   91.0770  -11.6930 C.3   191  TRP191      0.0550
     42  CG        32.1710   89.7400  -11.5240 C.ar  191  TRP191      0.0003
     43  CD1       32.5860   88.9000  -12.5150 C.ar  191  TRP191      0.0946
     44  CD2       32.5100   89.0990  -10.2870 C.ar  191  TRP191      0.0152
     45  NE1       33.1630   87.7780  -11.9730 N.ar  191  TRP191     -0.2442
     46  CE2       33.1280   87.8760  -10.6070 C.ar  191  TRP191      0.0810
     47  CE3       32.3480   89.4400   -8.9400 C.ar  191  TRP191      0.0012
     48  CZ2       33.5870   86.9950   -9.6300 C.ar  191  TRP191      0.0191
     49  CZ3       32.7990   88.5690   -7.9750 C.ar  191  TRP191      0.0001
     50  CH2       33.4130   87.3590   -8.3210 C.ar  191  TRP191      0.0015
     51  N         24.6230   80.9590  -23.0750 N.3   216  ARG216     -0.1245
     52  CA        24.9340   81.6730  -24.3010 C.3   216  ARG216      0.1563
     53  C         24.5790   80.8380  -25.5160 C.2   216  ARG216      0.2260
     54  O         24.7980   79.6290  -25.5390 O.2   216  ARG216     -0.2867
     55  CB        26.4230   82.0100  -24.3180 C.3   216  ARG216      0.0307
     56  CG        26.8670   82.8970  -25.4520 C.3   216  ARG216      0.0489
     57  CD        28.0060   83.8050  -24.9920 C.3   216  ARG216      0.2205
     58  NE        29.1110   83.0630  -24.3880 N.pl3 216  ARG216     -0.0865
     59  CZ        30.1500   83.6320  -23.7820 C.cat 216  ARG216      0.5346
     60  NH1       31.1100   82.8790  -23.2640 N.pl3 216  ARG216      0.1354
     61  NH2       30.2270   84.9530  -23.6880 N.pl3 216  ARG216      0.1354
     62  N         27.5030   76.7770  -19.8000 N.3   229  TYR229     -0.1241
     63  CA        28.8750   76.4360  -19.4710 C.3   229  TYR229      0.1605
     64  C         29.2370   76.9060  -18.0670 C.2   229  TYR229      0.2264
     65  O         28.3880   77.3790  -17.3140 O.2   229  TYR229     -0.2867
     66  CB        29.8150   77.0600  -20.5020 C.3   229  TYR229      0.0534
     67  CG        30.0360   78.5530  -20.3530 C.ar  229  TYR229     -0.0201
     68  CD1       31.0870   79.0440  -19.5790 C.ar  229  TYR229     -0.0009
     69  CD2       29.2180   79.4730  -21.0060 C.ar  229  TYR229     -0.0009
     70  CE1       31.3230   80.4100  -19.4640 C.ar  229  TYR229      0.0417
     71  CE2       29.4440   80.8420  -20.8950 C.ar  229  TYR229      0.0417
     72  CZ        30.4990   81.3040  -20.1240 C.ar  229  TYR229      0.1957
     73  OH        30.7420   82.6550  -20.0130 O.3   229  TYR229     -0.2866
     74  N         32.1000   79.2020  -15.7090 N.3   231  SER231     -0.1217
     75  CA        33.1640   80.1900  -15.7440 C.3   231  SER231      0.1889
     76  C         33.7750   80.3280  -14.3590 C.2   231  SER231      0.2288
     77  O         33.0830   80.6420  -13.3950 O.2   231  SER231     -0.2866
     78  CB        32.6280   81.5450  -16.2030 C.3   231  SER231      0.2089
     79  OG        33.6500   82.5240  -16.2070 O.3   231  SER231     -0.2183
     80  N         35.4990   82.5760  -12.6490 N.3   233  SER233     -0.1217
     81  CA        35.8750   83.9840  -12.6810 C.3   233  SER233      0.1889
     82  C         36.3160   84.5660  -11.3530 C.2   233  SER233      0.2288
     83  O         36.0530   84.0010  -10.2950 O.2   233  SER233     -0.2866
     84  CB        34.7020   84.8100  -13.2110 C.3   233  SER233      0.2089
     85  OG        34.9420   86.1980  -13.0750 O.3   233  SER233     -0.2183
     86  N         33.4320   96.9140  -22.1210 N.3   273  TYR273     -0.1227
     87  CA        33.4800   96.9090  -20.6590 C.3   273  TYR273      0.1736
     88  C         34.8890   96.8750  -20.0880 C.2   273  TYR273      0.2595
     89  O         35.0820   96.9900  -18.8780 O.2   273  TYR273     -0.2718
     90  CB        32.6610   95.7470  -20.0820 C.3   273  TYR273      0.0548
     91  CG        33.0190   94.3860  -20.6200 C.ar  273  TYR273     -0.0200
     92  CD1       32.6700   94.0190  -21.9160 C.ar  273  TYR273     -0.0009
     93  CD2       33.6970   93.4560  -19.8290 C.ar  273  TYR273     -0.0009
     94  CE1       32.9860   92.7630  -22.4160 C.ar  273  TYR273      0.0417
     95  CE2       34.0160   92.1930  -20.3200 C.ar  273  TYR273      0.0417
     96  CZ        33.6580   91.8550  -21.6180 C.ar  273  TYR273      0.1957
     97  OH        33.9810   90.6240  -22.1390 O.3   273  TYR273     -0.2866
     98  N         35.8740   96.7280  -20.9610 N.am  274  TYR274     -0.1976
     99  CA        37.2640   96.6930  -20.5300 C.3   274  TYR274      0.1639
    100  C         37.9780   97.9280  -21.0360 C.2   274  TYR274      0.2290
    101  O         37.7760   98.3450  -22.1770 O.2   274  TYR274     -0.2864
    102  CB        37.9850   95.4600  -21.0880 C.3   274  TYR274      0.0560
    103  CG        37.7500   94.1670  -20.3400 C.ar  274  TYR274     -0.0198
    104  CD1       38.0630   94.0530  -18.9900 C.ar  274  TYR274     -0.0009
    105  CD2       37.2490   93.0460  -20.9960 C.ar  274  TYR274     -0.0009
    106  CE1       37.8800   92.8520  -18.3110 C.ar  274  TYR274      0.0417
    107  CE2       37.0640   91.8430  -20.3290 C.ar  274  TYR274      0.0417
    108  CZ        37.3810   91.7530  -18.9880 C.ar  274  TYR274      0.1957
    109  OH        37.1960   90.5630  -18.3250 O.3   274  TYR274     -0.2866
    110  N         42.2400   94.3100  -22.3030 N.3   279  GLN279     -0.1245
    111  CA        41.6540   93.0000  -22.5190 C.3   279  GLN279      0.1566
    112  C         42.7100   92.0980  -23.1330 C.2   279  GLN279      0.2260
    113  O         42.9430   92.0980  -24.3420 O.2   279  GLN279     -0.2867
    114  CB        40.4240   93.0960  -23.4290 C.3   279  GLN279      0.0367
    115  CG        39.8320   91.7540  -23.7810 C.3   279  GLN279      0.0905
    116  CD        38.4650   91.8560  -24.4130 C.2   279  GLN279      0.2608
    117  OE1       38.2330   92.7010  -25.2730 O.2   279  GLN279     -0.2717
    118  NE2       37.5520   90.9820  -24.0000 N.am  279  GLN279     -0.0878
    119  N         41.1330   84.5610  -20.0920 N.3   305  THR305     -0.1218
    120  CA        41.1590   85.9180  -20.6420 C.3   305  THR305      0.1862
    121  C         40.9340   86.8960  -19.5000 C.2   305  THR305      0.2287
    122  O         40.3610   86.5290  -18.4780 O.2   305  THR305     -0.2866
    123  CB        40.0470   86.1360  -21.6800 C.3   305  THR305      0.1770
    124  OG1       38.8190   86.4170  -21.0050 O.3   305  THR305     -0.2211
    125  CG2       39.8530   84.8850  -22.5330 C.3   305  THR305      0.0375
    126  N         39.7260   91.7000  -13.7740 N.3   325  ASN325     -0.1240
    127  CA        38.8620   90.5410  -13.9550 C.3   325  ASN325      0.1653
    128  C         39.5020   89.4850  -14.8400 C.2   325  ASN325      0.2266
    129  O         39.8410   89.7520  -15.9900 O.2   325  ASN325     -0.2867
    130  CB        37.5360   90.9760  -14.5700 C.3   325  ASN325      0.1155
    131  CG        36.7060   89.8080  -15.0610 C.2   325  ASN325      0.2627
    132  OD1       35.7490   89.9920  -15.8080 O.2   325  ASN325     -0.2716
    133  ND2       37.0600   88.6020  -14.6370 N.am  325  ASN325     -0.0877
    134  N         39.0150   85.4510  -16.2350 N.3   327  GLY327     -0.1225
    135  CA        37.9990   84.4260  -16.4010 C.3   327  GLY327      0.1811
    136  C         38.5040   83.1710  -17.0800 C.2   327  GLY327      0.2280
    137  O         38.9150   83.1900  -18.2370 O.2   327  GLY327     -0.2866
@<TRIPOS>BOND
     1     1     2    1
     2     5     2    1
     3     5     6    1
     4     2     3    1
     5     7     6    1
     6     7     8    1
     7     3     4    2
     8    11     9    1
     9     8     9    2
    10     9    10    1
    11    54    53    2
    12    53    52    1
    13    56    57    1
    14    56    55    1
    15   117   116    2
    16    57    58    1
    17   116   118   am
    18   116   115    1
    19    58    59    2
    20   113   112    2
    21    55    52    1
    22    52    51    1
    23    59    61    1
    24    59    60    1
    25   115   114    1
    26   114   111    1
    27   112   111    1
    28   125   123    1
    29   111   110    1
    30    94    92   ar
    31    94    96   ar
    32   101   100    2
    33    97    96    1
    34    86    87    1
    35    92    91   ar
    36   123   124    1
    37   123   120    1
    38    96    95   ar
    39   102    99    1
    40   102   103    1
    41   100    99    1
    42    69    71   ar
    43    69    67   ar
    44   105   103   ar
    45   105   107   ar
    46    98    99    1
    47    98    88   am
    48    71    72   ar
    49    87    88    1
    50    87    90    1
    51   120   119    1
    52   120   121    1
    53    91    90    1
    54    91    93   ar
    55    66    67    1
    56    66    63    1
    57    67    68   ar
    58   103   104   ar
    59   107   108   ar
    60    95    93   ar
    61    20    18   ar
    62    20    21   ar
    63    72    73    1
    64    72    70   ar
    65    88    89    2
    66    18    17   ar
    67    62    63    1
    68    21    19   ar
    69    68    70   ar
    70    17    16    1
    71    17    19   ar
    72   121   122    2
    73    63    64    1
    74    16    13    1
    75    12    13    1
    76   104   106   ar
    77   108   109    1
    78   108   106   ar
    79    13    14    1
    80   137   136    2
    81    64    65    2
    82    14    15    2
    83    14    22   am
    84   136   135    1
    85    34    35    1
    86    34    36    1
    87    34    31    1
    88   135   134    1
    89    22    23    1
    90    79    78    1
    91    78    75    1
    92   129   128    2
    93   132   131    2
    94    75    74    1
    95    75    76    1
    96    30    31    1
    97    30    24   am
    98    31    32    1
    99    32    33    2
   100   131   133   am
   101   131   130    1
   102   128   127    1
   103    23    24    1
   104    23    26    1
   105    24    25    2
   106   130   127    1
   107    76    77    2
   108    26    27    1
   109   127   126    1
   110    84    85    1
   111    84    81    1
   112    29    28    1
   113    81    80    1
   114    81    82    1
   115    27    28    1
   116    43    45   ar
   117    43    42   ar
   118    45    46   ar
   119    37    38    1
   120    41    42    1
   121    41    38    1
   122    42    44   ar
   123    82    83    2
   124    38    39    1
   125    39    40    2
   126    46    44   ar
   127    46    48   ar
   128    44    47   ar
   129    48    50   ar
   130    47    49   ar
   131    50    49   ar
