@<TRIPOS>MOLECULE
tmp/2dujA00.pdb
 171 165 0 0 0
SMALL
GASTEIGER

@<TRIPOS>ATOM
      1  N          7.1610  -22.3610  -12.5160 N.3    67  ASN67      -0.1240
      2  CA         8.5100  -22.0650  -12.9940 C.3    67  ASN67       0.1653
      3  C          9.5910  -22.7200  -12.1230 C.2    67  ASN67       0.2266
      4  O         10.4710  -23.4400  -12.6290 O.2    67  ASN67      -0.2867
      5  CB         8.7090  -20.5440  -13.0500 C.3    67  ASN67       0.1155
      6  CG        10.1040  -20.1500  -13.5130 C.2    67  ASN67       0.2627
      7  OD1       11.0740  -20.1790  -12.7310 O.2    67  ASN67      -0.2716
      8  ND2       10.2280  -19.8260  -14.7950 N.am   67  ASN67      -0.0877
      9  N         11.5270  -20.7640   -9.8780 N.3    69  HIS69      -0.1241
     10  CA        12.3400  -19.6540   -9.3460 C.3    69  HIS69       0.1621
     11  C         11.8670  -19.1880   -7.9480 C.2    69  HIS69       0.2264
     12  O         12.6680  -19.0880   -7.0020 O.2    69  HIS69      -0.2867
     13  CB        12.2990  -18.4960  -10.3540 C.3    69  HIS69       0.0745
     14  CG        13.2350  -17.3660  -10.0610 C.ar   69  HIS69       0.0817
     15  ND1       12.8450  -16.2370   -9.3680 N.ar   69  HIS69      -0.2268
     16  CD2       14.5300  -17.1550  -10.4270 C.ar   69  HIS69       0.1154
     17  CE1       13.8590  -15.3930   -9.3030 C.ar   69  HIS69       0.1986
     18  NE2       14.8890  -15.9210   -9.9460 N.ar   69  HIS69      -0.2212
     19  N         13.5690  -10.9440   -5.8400 N.3   132  SER132     -0.1202
     20  CA        14.6240  -11.4500   -6.7080 C.3   132  SER132      0.2020
     21  C         14.2130  -11.2220   -8.1510 C.2   132  SER132      0.2619
     22  O         13.9280  -12.1400   -8.8930 O.2   132  SER132     -0.2717
     23  CB        14.8700  -12.9410   -6.4240 C.3   132  SER132      0.2103
     24  OG        15.5340  -13.0990   -5.1720 O.3   132  SER132     -0.2182
     25  N         14.1550   -9.9490   -8.5360 N.am  133  LEU133     -0.1965
     26  CA        13.6780   -9.6150   -9.8630 C.3   133  LEU133      0.1728
     27  C         14.1550   -8.2090  -10.1900 C.2   133  LEU133      0.2617
     28  O         14.6820   -7.4880   -9.3350 O.2   133  LEU133     -0.2715
     29  CB        12.1330   -9.6810   -9.9240 C.3   133  LEU133      0.0311
     30  CG        11.3330   -8.8530   -8.8960 C.3   133  LEU133      0.0022
     31  CD1       11.3220   -7.3780   -9.2660 C.3   133  LEU133      0.0001
     32  CD2        9.9020   -9.3450   -8.8050 C.3   133  LEU133      0.0001
     33  N         13.9970   -7.8300  -11.4480 N.am  134  GLY134     -0.1940
     34  CA        14.3380   -6.4820  -11.8420 C.3   134  GLY134      0.2014
     35  C         14.4400   -6.3470  -13.3470 C.2   134  GLY134      0.2639
     36  O         14.3160   -7.3200  -14.1110 O.2   134  GLY134     -0.2714
     37  N         14.6470   -5.1190  -13.7780 N.am  135  GLY135     -0.1954
     38  CA        14.8080   -4.8460  -15.1890 C.3   135  GLY135      0.1869
     39  C         15.4110   -3.4500  -15.3290 C.2   135  GLY135      0.2309
     40  O         16.0580   -2.9650  -14.4010 O.2   135  GLY135     -0.2863
     41  N         17.4250   -7.8250   -5.5710 N.3   158  ALA158     -0.1245
     42  CA        18.6110   -8.3010   -6.3040 C.3   158  ALA158      0.1562
     43  C         19.3130   -7.1910   -7.0400 C.2   158  ALA158      0.2260
     44  O         18.6420   -6.3450   -7.6620 O.2   158  ALA158     -0.2867
     45  CB        18.2170   -9.3920   -7.3250 C.3   158  ALA158      0.0290
     46  N         21.0650   -7.5750   -9.7780 N.3   160  GLY160     -0.1210
     47  CA        20.9820   -7.8380  -11.2070 C.3   160  GLY160      0.1956
     48  C         22.1890   -8.6240  -11.6880 C.2   160  GLY160      0.2612
     49  O         23.2300   -8.5840  -11.0430 O.2   160  GLY160     -0.2717
     50  N         22.0440   -9.3050  -12.8350 N.am  161  ASN161     -0.1960
     51  CA        23.0640  -10.2210  -13.3400 C.3   161  ASN161      0.1819
     52  C         23.7110   -9.8050  -14.6630 C.2   161  ASN161      0.2621
     53  O         24.0110  -10.6570  -15.5030 O.2   161  ASN161     -0.2715
     54  CB        22.4410  -11.6150  -13.5150 C.3   161  ASN161      0.1195
     55  CG        21.7150  -12.0790  -12.2780 C.2   161  ASN161      0.2630
     56  OD1       22.1750  -11.8720  -11.1640 O.2   161  ASN161     -0.2716
     57  ND2       20.5510  -12.6730  -12.4680 N.am  161  ASN161     -0.0877
     58  N         23.9550   -8.5110  -14.8380 N.am  162  ASN162     -0.1972
     59  CA        24.5150   -7.9860  -16.0890 C.3   162  ASN162      0.1688
     60  C         25.9940   -7.5960  -15.9900 C.2   162  ASN162      0.2292
     61  O         26.5220   -6.9890  -16.9280 O.2   162  ASN162     -0.2864
     62  CB        23.7090   -6.7470  -16.5260 C.3   162  ASN162      0.1181
     63  CG        22.1890   -6.9030  -16.3020 C.2   162  ASN162      0.2629
     64  OD1       21.4680   -7.3990  -17.1710 O.2   162  ASN162     -0.2716
     65  ND2       21.7070   -6.4710  -15.1380 N.am  162  ASN162     -0.0877
     66  N         19.3860   -0.1230  -13.1820 N.3   169  TYR169     -0.1227
     67  CA        18.3910   -1.1900  -13.0230 C.3   169  TYR169      0.1736
     68  C         17.4600   -0.9190  -11.8600 C.2   169  TYR169      0.2596
     69  O         17.8360   -0.2590  -10.9070 O.2   169  TYR169     -0.2718
     70  CB        19.0990   -2.5440  -12.8250 C.3   169  TYR169      0.0548
     71  CG        19.9440   -2.8900  -14.0370 C.ar  169  TYR169     -0.0200
     72  CD1       21.2760   -2.4850  -14.1060 C.ar  169  TYR169     -0.0009
     73  CD2       19.3950   -3.5390  -15.1360 C.ar  169  TYR169     -0.0009
     74  CE1       22.0440   -2.7490  -15.2240 C.ar  169  TYR169      0.0417
     75  CE2       20.1610   -3.8220  -16.2530 C.ar  169  TYR169      0.0417
     76  CZ        21.4720   -3.4320  -16.2920 C.ar  169  TYR169      0.1957
     77  OH        22.1910   -3.7530  -17.4370 O.3   169  TYR169     -0.2866
     78  N         16.2440   -1.4360  -11.9460 N.am  170  SER170     -0.1952
     79  CA        15.2590   -1.2240  -10.8750 C.3   170  SER170      0.1924
     80  C         14.5860   -2.5630  -10.5000 C.2   170  SER170      0.2314
     81  O         14.3100   -3.3940  -11.3640 O.2   170  SER170     -0.2863
     82  CB        14.1620   -0.2870  -11.3700 C.3   170  SER170      0.2116
     83  OG        14.6670    1.0380  -11.4860 O.3   170  SER170     -0.2180
     84  N         30.6550  -13.8490  -11.2140 N.3   191  SER191     -0.1202
     85  CA        31.0420  -13.2380  -12.4800 C.3   191  SER191      0.2020
     86  C         29.9450  -12.4120  -13.1490 C.2   191  SER191      0.2618
     87  O         30.2380  -11.4580  -13.8840 O.2   191  SER191     -0.2717
     88  CB        31.5550  -14.3110  -13.4410 C.3   191  SER191      0.2103
     89  OG        30.4600  -15.0820  -13.8360 O.3   191  SER191     -0.2182
     90  N         28.6930  -12.7590  -12.8820 N.am  192  PHE192     -0.1975
     91  CA        27.5530  -12.0410  -13.4220 C.3   192  PHE192      0.1639
     92  C         27.0200  -10.9300  -12.5290 C.2   192  PHE192      0.2290
     93  O         26.1400  -10.1820  -12.9590 O.2   192  PHE192     -0.2864
     94  CB        26.4050  -13.0270  -13.5980 C.3   192  PHE192      0.0560
     95  CG        26.1240  -13.8310  -12.3530 C.ar  192  PHE192     -0.0200
     96  CD1       25.3880  -13.2830  -11.2940 C.ar  192  PHE192     -0.0042
     97  CD2       26.6390  -15.1030  -12.2070 C.ar  192  PHE192     -0.0042
     98  CE1       25.1450  -14.0130  -10.1550 C.ar  192  PHE192     -0.0003
     99  CE2       26.4180  -15.8410  -11.0540 C.ar  192  PHE192     -0.0003
    100  CZ        25.6550  -15.3060  -10.0260 C.ar  192  PHE192     -0.0000
    101  N         26.3950  -17.9790   -6.1860 N.3   206  THR206     -0.1218
    102  CA        26.7850  -18.9570   -7.2080 C.3   206  THR206      0.1862
    103  C         26.6190  -20.3760   -6.7130 C.2   206  THR206      0.2287
    104  O         27.1010  -20.6900   -5.6390 O.2   206  THR206     -0.2866
    105  CB        28.2320  -18.7090   -7.5900 C.3   206  THR206      0.1770
    106  OG1       28.3300  -17.4000   -8.1870 O.3   206  THR206     -0.2211
    107  CG2       28.6750  -19.7250   -8.6840 C.3   206  THR206      0.0375
    108  N         12.8390  -26.8720   -5.2320 N.3   212  TRP212     -0.1241
    109  CA        12.3230  -26.6750   -6.5780 C.3   212  TRP212      0.1605
    110  C         10.9540  -27.3180   -6.6640 C.2   212  TRP212      0.2264
    111  O         10.5580  -28.0620   -5.7730 O.2   212  TRP212     -0.2867
    112  CB        13.2630  -27.2990   -7.6270 C.3   212  TRP212      0.0550
    113  CG        13.0900  -26.7600   -9.0250 C.ar  212  TRP212      0.0003
    114  CD1       12.5100  -27.3920  -10.0980 C.ar  212  TRP212      0.0946
    115  CD2       13.5450  -25.4860   -9.5200 C.ar  212  TRP212      0.0152
    116  NE1       12.5590  -26.5880  -11.2120 N.ar  212  TRP212     -0.2442
    117  CE2       13.1900  -25.4150  -10.8910 C.ar  212  TRP212      0.0810
    118  CE3       14.2190  -24.4030   -8.9470 C.ar  212  TRP212      0.0012
    119  CZ2       13.4880  -24.3130  -11.6910 C.ar  212  TRP212      0.0191
    120  CZ3       14.5100  -23.3000   -9.7590 C.ar  212  TRP212      0.0001
    121  CH2       14.1300  -23.2670  -11.1100 C.ar  212  TRP212      0.0015
    122  N         17.3130  -28.2050   -6.5780 N.3   218  ARG218     -0.1245
    123  CA        18.3540  -27.9970   -7.5890 C.3   218  ARG218      0.1563
    124  C         19.2020  -26.8150   -7.2340 C.2   218  ARG218      0.2260
    125  O         18.8430  -26.0030   -6.3610 O.2   218  ARG218     -0.2867
    126  CB        17.8500  -27.8890   -9.0220 C.3   218  ARG218      0.0307
    127  CG        17.1020  -26.6280   -9.3490 C.3   218  ARG218      0.0489
    128  CD        16.6770  -26.5160  -10.8420 C.3   218  ARG218      0.2205
    129  NE        15.8080  -27.6350  -11.2140 N.pl3 218  ARG218     -0.0865
    130  CZ        15.3380  -27.8650  -12.4430 C.cat 218  ARG218      0.5346
    131  NH1       15.6370  -27.0520  -13.4440 N.pl3 218  ARG218      0.1354
    132  NH2       14.5730  -28.9300  -12.6570 N.pl3 218  ARG218      0.1354
    133  N         21.1430  -23.4550   -8.5610 N.3   220  ILE220     -0.1231
    134  CA        21.1800  -22.4520   -9.6390 C.3   220  ILE220      0.1692
    135  C         21.9390  -21.2430   -9.1180 C.2   220  ILE220      0.2593
    136  O         22.2280  -21.1470   -7.9060 O.2   220  ILE220     -0.2718
    137  CB        19.7810  -22.0580  -10.1720 C.3   220  ILE220      0.0266
    138  CG1       18.8820  -21.5600   -9.0420 C.3   220  ILE220      0.0019
    139  CG2       19.1030  -23.2290  -10.9020 C.3   220  ILE220      0.0020
    140  CD1       17.5840  -20.8010   -9.5430 C.3   220  ILE220      0.0001
    141  N         22.2190  -20.3010  -10.0180 N.am  221  SER221     -0.1938
    142  CA        23.0520  -19.1510   -9.6640 C.3   221  SER221      0.2055
    143  C         22.4010  -17.8290  -10.0500 C.2   221  SER221      0.2644
    144  O         21.6740  -17.7560  -11.0240 O.2   221  SER221     -0.2714
    145  CB        24.4010  -19.2360  -10.4050 C.3   221  SER221      0.2130
    146  OG        25.1370  -20.4070  -10.0620 O.3   221  SER221     -0.2179
    147  N         22.6940  -16.7960   -9.2840 N.am  222  GLY222     -0.1939
    148  CA        22.1900  -15.4710   -9.6030 C.3   222  GLY222      0.2014
    149  C         22.1460  -14.5570   -8.4120 C.2   222  GLY222      0.2640
    150  O         22.2370  -15.0000   -7.2700 O.2   222  GLY222     -0.2714
    151  N         21.9590  -13.2530   -8.6590 N.am  223  THR223     -0.1936
    152  CA        21.7790  -12.3160   -7.5360 C.3   223  THR223      0.2028
    153  C         20.4040  -12.6470   -6.9600 C.2   223  THR223      0.2643
    154  O         20.0190  -12.1320   -5.9110 O.2   223  THR223     -0.2714
    155  CB        21.8680  -10.8270   -7.9400 C.3   223  THR223      0.1808
    156  OG1       21.0510  -10.5750   -9.0990 O.3   223  THR223     -0.2208
    157  CG2       23.2980  -10.4390   -8.2390 C.3   223  THR223      0.0379
    158  N         19.6710  -13.4880   -7.6650 N.am  224  SER224     -0.1935
    159  CA        18.3790  -13.9040   -7.2030 C.3   224  SER224      0.2055
    160  C         18.5350  -14.8430   -6.0600 C.2   224  SER224      0.2642
    161  O         17.6490  -14.9530   -5.2110 O.2   224  SER224     -0.2714
    162  CB        17.6220  -14.6860   -8.2810 C.3   224  SER224      0.2130
    163  OG        17.0510  -13.8220   -9.2500 O.3   224  SER224     -0.2179
    164  N         19.6390  -15.4900   -6.0220 N.am  225  MET225     -0.1976
    165  CA        19.8910  -16.4260   -4.9770 C.3   225  MET225      0.1605
    166  C         20.5230  -15.7430   -3.7650 C.2   225  MET225      0.2287
    167  O         20.3790  -16.2090   -2.6390 O.2   225  MET225     -0.2864
    168  CB        20.7930  -17.5500   -5.5030 C.3   225  MET225      0.0413
    169  CG        20.1000  -18.6090   -6.3670 C.3   225  MET225      0.0598
    170  SD        19.4900  -17.9560   -7.9440 S.3   225  MET225     -0.1393
    171  CE        17.7170  -18.0520   -7.6970 C.3   225  MET225      0.0692
@<TRIPOS>BOND
     1    77    76    1
     2    64    63    2
     3    61    60    2
     4    62    63    1
     5    62    59    1
     6    63    65   am
     7    76    75   ar
     8    76    74   ar
     9    75    73   ar
    10    59    60    1
    11    59    58    1
    12    53    52    2
    13    39    38    1
    14    39    40    2
    15    74    72   ar
    16    38    37    1
    17    73    71   ar
    18    58    52   am
    19     8     6   am
    20    52    51    1
    21    36    35    2
    22    72    71   ar
    23    71    70    1
    24    87    86    2
    25    89    88    1
    26    37    35   am
    27    94    91    1
    28    94    95    1
    29    54    51    1
    30    54    55    1
    31     6     5    1
    32     6     7    2
    33   131   130    1
    34    88    85    1
    35    91    90    1
    36    91    92    1
    37    35    34    1
    38    51    50    1
    39    66    67    1
    40    86    90   am
    41    86    85    1
    42     5     2    1
    43    67    70    1
    44    67    68    1
    45     2     1    1
    46     2     3    1
    47    93    92    2
    48    50    48   am
    49   132   130    1
    50     4     3    2
    51    85    84    1
    52    57    55   am
    53   130   129    2
    54    95    97   ar
    55    95    96   ar
    56    55    56    2
    57    97    99   ar
    58    78    68   am
    59    78    79    1
    60    68    69    2
    61    34    33    1
    62   119   121   ar
    63   119   117   ar
    64    48    47    1
    65    48    49    2
    66    83    82    1
    67    33    27   am
    68    82    79    1
    69    81    80    2
    70    96    98   ar
    71   129   128    1
    72   116   117   ar
    73   116   114   ar
    74    47    46    1
    75   121   120   ar
    76    99   100   ar
    77   144   143    2
    78   139   137    1
    79   117   115   ar
    80    79    80    1
    81   128   127    1
    82    16    14   ar
    83    16    18   ar
    84   145   146    1
    85   145   142    1
    86    13    14    1
    87    13    10    1
    88    27    26    1
    89    27    28    2
    90   137   134    1
    91   137   138    1
    92    98   100   ar
    93   114   113   ar
    94    14    15   ar
    95   143   142    1
    96   143   147   am
    97   141   142    1
    98   141   135   am
    99    18    17   ar
   100    29    26    1
   101    29    30    1
   102     9    10    1
   103    26    25    1
   104   120   118   ar
   105   134   135    1
   106   134   133    1
   107   148   147    1
   108   148   149    1
   109   140   138    1
   110   115   113   ar
   111   115   118   ar
   112    15    17   ar
   113   127   126    1
   114    10    11    1
   115    31    30    1
   116   163   162    1
   117   135   136    2
   118   156   155    1
   119   113   112    1
   120   126   123    1
   121    30    32    1
   122    22    21    2
   123   107   105    1
   124   151   149   am
   125   151   152    1
   126    25    21   am
   127   149   150    2
   128   162   159    1
   129   157   155    1
   130   106   105    1
   131    21    20    1
   132    11    12    2
   133   170   171    1
   134   170   169    1
   135   155   152    1
   136   158   159    1
   137   158   153   am
   138    44    43    2
   139   112   109    1
   140   105   102    1
   141   123   124    1
   142   123   122    1
   143   152   153    1
   144    45    42    1
   145   124   125    2
   146   102   103    1
   147   102   101    1
   148   159   160    1
   149    43    42    1
   150   153   154    2
   151   103   104    2
   152    20    23    1
   153    20    19    1
   154   110   109    1
   155   110   111    2
   156   109   108    1
   157    23    24    1
   158   169   168    1
   159    42    41    1
   160   160   164   am
   161   160   161    2
   162   164   165    1
   163   168   165    1
   164   165   166    1
   165   166   167    2
