@<TRIPOS>MOLECULE
tmp/2durA00.pdb
 80 75 0 0 0
SMALL
GASTEIGER

@<TRIPOS>ATOM
      1  N        119.3790   10.7210   44.9380 N.3    46  SER46      -0.1217
      2  CA       118.8500   11.7940   44.0920 C.3    46  SER46       0.1889
      3  C        118.8170   11.4390   42.6100 C.2    46  SER46       0.2288
      4  O        119.3350   12.1770   41.7620 O.2    46  SER46      -0.2866
      5  CB       119.6180   13.1070   44.3450 C.3    46  SER46       0.2089
      6  OG       119.4360   13.4930   45.6990 O.3    46  SER46      -0.2183
      7  N        116.1610   10.0240   39.3420 N.3    48  GLU48      -0.1245
      8  CA       114.7980    9.8210   38.8420 C.3    48  GLU48       0.1567
      9  C        114.8740    9.3080   37.4260 C.2    48  GLU48       0.2260
     10  O        115.5080    9.9260   36.5650 O.2    48  GLU48      -0.2867
     11  CB       114.0100   11.1300   38.9100 C.3    48  GLU48       0.0388
     12  CG       113.6650   11.4680   40.3630 C.3    48  GLU48       0.1160
     13  CD       113.0920   12.8540   40.5970 C.2    48  GLU48       0.3649
     14  OE1      113.0600   13.7030   39.6790 O.co2  48  GLU48      -0.2457
     15  OE2      112.6880   13.0920   41.7530 O.co2  48  GLU48      -0.2457
     16  N        113.2450    5.1210   46.9660 N.3    81  ASP81      -0.1239
     17  CA       111.9130    5.3980   47.5150 C.3    81  ASP81       0.1674
     18  C        110.8170    4.4790   46.9850 C.2    81  ASP81       0.2266
     19  O        109.7570    4.3370   47.6180 O.2    81  ASP81      -0.2867
     20  CB       111.5540    6.8590   47.1920 C.3    81  ASP81       0.1410
     21  CG       112.1700    7.8210   48.1960 C.2    81  ASP81       0.3668
     22  OD1      113.2270    8.4350   47.8930 O.co2  81  ASP81      -0.2456
     23  OD2      111.6200    7.9080   49.3130 O.co2  81  ASP81      -0.2456
     24  N        109.5920    3.1980   51.4780 N.3   114  TYR114     -0.1241
     25  CA       110.0750    3.9940   52.6050 C.3   114  TYR114      0.1605
     26  C        108.9350    4.7640   53.2830 C.2   114  TYR114      0.2264
     27  O        108.2900    5.5630   52.6120 O.2   114  TYR114     -0.2867
     28  CB       111.1430    4.9860   52.1250 C.3   114  TYR114      0.0534
     29  CG       111.6410    5.8630   53.2330 C.ar  114  TYR114     -0.0201
     30  CD1      112.3350    5.3180   54.3190 C.ar  114  TYR114     -0.0009
     31  CD2      111.4070    7.2440   53.2120 C.ar  114  TYR114     -0.0009
     32  CE1      112.7800    6.1290   55.3490 C.ar  114  TYR114      0.0417
     33  CE2      111.8600    8.0630   54.2460 C.ar  114  TYR114      0.0417
     34  CZ       112.5320    7.4830   55.3160 C.ar  114  TYR114      0.1957
     35  OH       112.9800    8.2780   56.3530 O.3   114  TYR114     -0.2866
     36  N        107.6530    7.6870   54.7260 N.3   116  ASN116     -0.1240
     37  CA       107.9420    9.1010   54.9840 C.3   116  ASN116      0.1653
     38  C        107.0940    9.6290   56.1370 C.2   116  ASN116      0.2266
     39  O        107.4780   10.5760   56.8310 O.2   116  ASN116     -0.2867
     40  CB       107.6360    9.9170   53.7400 C.3   116  ASN116      0.1155
     41  CG       108.5780    9.6230   52.6150 C.2   116  ASN116      0.2627
     42  OD1      108.3720    8.6790   51.8480 O.2   116  ASN116     -0.2716
     43  ND2      109.6190   10.4300   52.4930 N.am  116  ASN116     -0.0877
     44  N        103.9990   13.2230   49.0420 N.3   140  HIS140     -0.1241
     45  CA       105.1040   12.2570   49.1930 C.3   140  HIS140      0.1621
     46  C        105.4970   12.1030   50.6530 C.2   140  HIS140      0.2264
     47  O        105.7510   11.0050   51.1460 O.2   140  HIS140     -0.2867
     48  CB       106.2910   12.7030   48.3400 C.3   140  HIS140      0.0745
     49  CG       107.5030   11.8470   48.5330 C.ar  140  HIS140      0.0817
     50  ND1      107.6910   10.6620   47.8550 N.ar  140  HIS140     -0.2268
     51  CD2      108.5580   11.9720   49.3700 C.ar  140  HIS140      0.1154
     52  CE1      108.8250   10.1080   48.2470 C.ar  140  HIS140      0.1986
     53  NE2      109.3650   10.8780   49.1710 N.ar  140  HIS140     -0.2212
     54  N        114.9120    7.9740   43.8380 N.3   209  THR209     -0.1203
     55  CA       115.7140    7.8630   45.0690 C.3   209  THR209      0.1994
     56  C        115.9330    9.3030   45.5490 C.2   209  THR209      0.2618
     57  O        115.9650   10.2210   44.7260 O.2   209  THR209     -0.2717
     58  CB       117.1010    7.1800   44.8060 C.3   209  THR209      0.1784
     59  OG1      117.8320    7.9210   43.8320 O.3   209  THR209     -0.2211
     60  CG2      116.8850    5.7540   44.2730 C.3   209  THR209      0.0376
     61  N        116.0560    9.4770   46.8640 N.am  210  GLY210     -0.1942
     62  CA       116.2810   10.8100   47.4700 C.3   210  GLY210      0.2014
     63  C        117.5360   10.7140   48.3030 C.2   210  GLY210      0.2639
     64  O        118.6060   10.4080   47.7730 O.2   210  GLY210     -0.2714
     65  N        117.4080   10.9920   49.5970 N.am  211  ASP211     -0.1957
     66  CA       118.5270   10.8110   50.5340 C.3   211  ASP211      0.1840
     67  C        118.7850    9.3230   50.7450 C.2   211  ASP211      0.2621
     68  O        119.8430    8.9540   51.2990 O.2   211  ASP211     -0.2715
     69  CB       118.2070   11.4520   51.8770 C.3   211  ASP211      0.1450
     70  CG       118.1100   12.9640   51.7930 C.2   211  ASP211      0.3671
     71  OD1      118.7820   13.5540   50.9270 O.co2 211  ASP211     -0.2456
     72  OD2      117.3650   13.5420   52.6100 O.co2 211  ASP211     -0.2456
     73  N        117.8040    8.5020   50.3500 N.am  212  LEU212     -0.1977
     74  CA       117.8910    7.0220   50.4210 C.3   212  LEU212      0.1596
     75  C        117.7260    6.4500   49.0380 C.2   212  LEU212      0.2287
     76  O        117.1060    7.0660   48.1690 O.2   212  LEU212     -0.2864
     77  CB       116.8020    6.4890   51.3540 C.3   212  LEU212      0.0297
     78  CG       116.8300    7.0220   52.7910 C.3   212  LEU212      0.0022
     79  CD1      115.6400    6.5080   53.5760 C.3   212  LEU212      0.0001
     80  CD2      118.1610    6.6460   53.4630 C.3   212  LEU212      0.0001
@<TRIPOS>BOND
     1    10     9    2
     2     9     8    1
     3     8    11    1
     4     8     7    1
     5    11    12    1
     6    14    13   ar
     7    12    13    1
     8    13    15   ar
     9     4     3    2
    10     3     2    1
    11    59    58    1
    12    54    55    1
    13     2     5    1
    14     2     1    1
    15    60    58    1
    16     5     6    1
    17    57    56    2
    18    58    55    1
    19    55    56    1
    20    56    61   am
    21    61    62    1
    22    16    17    1
    23    18    17    1
    24    18    19    2
    25    20    17    1
    26    20    21    1
    27    62    63    1
    28    64    63    2
    29    50    52   ar
    30    50    49   ar
    31    22    21   ar
    32    76    75    2
    33    21    23   ar
    34    52    53   ar
    35    63    65   am
    36    48    49    1
    37    48    45    1
    38    49    51   ar
    39    75    74    1
    40    44    45    1
    41    53    51   ar
    42    45    46    1
    43    65    66    1
    44    73    74    1
    45    73    67   am
    46    74    77    1
    47    66    67    1
    48    66    69    1
    49    46    47    2
    50    67    68    2
    51    71    70   ar
    52    77    78    1
    53    24    25    1
    54    70    69    1
    55    70    72   ar
    56    42    41    2
    57    28    25    1
    58    28    29    1
    59    43    41   am
    60    25    26    1
    61    27    26    2
    62    41    40    1
    63    78    80    1
    64    78    79    1
    65    31    29   ar
    66    31    33   ar
    67    29    30   ar
    68    40    37    1
    69    33    34   ar
    70    30    32   ar
    71    36    37    1
    72    37    38    1
    73    34    32   ar
    74    34    35    1
    75    38    39    2
