@<TRIPOS>MOLECULE
tmp/2duvA00.pdb
 181 173 0 0 0
SMALL
GASTEIGER

@<TRIPOS>ATOM
      1  N         27.3030   23.3490   33.0430 N.3    10  ILE10      -0.1231
      2  CA        26.3540   23.5720   31.9640 C.3    10  ILE10       0.1692
      3  C         26.5600   22.5650   30.8470 C.2    10  ILE10       0.2593
      4  O         25.9220   21.5140   30.8270 O.2    10  ILE10      -0.2718
      5  CB        26.4890   24.9800   31.3690 C.3    10  ILE10       0.0266
      6  CG1       26.1690   26.0180   32.4390 C.3    10  ILE10       0.0019
      7  CG2       25.5620   25.1260   30.1920 C.3    10  ILE10       0.0020
      8  CD1       24.8530   25.7600   33.1210 C.3    10  ILE10       0.0001
      9  N         27.4590   22.8780   29.9220 N.am   11  GLY11      -0.1942
     10  CA        27.6910   21.9730   28.8130 C.3    11  GLY11       0.2014
     11  C         29.0950   21.9320   28.2490 C.2    11  GLY11       0.2639
     12  O         29.9800   22.6960   28.6370 O.2    11  GLY11      -0.2714
     13  N         29.2870   21.0030   27.3210 N.am   12  GLU12      -0.1963
     14  CA        30.5630   20.8050   26.6550 C.3    12  GLU12       0.1733
     15  C         30.5680   21.7680   25.4810 C.2    12  GLU12       0.2617
     16  O         29.7420   21.6630   24.5610 O.2    12  GLU12      -0.2715
     17  CB        30.6750   19.3660   26.1400 C.3    12  GLU12       0.0429
     18  CG        30.3000   18.2820   27.1570 C.3    12  GLU12       0.1163
     19  CD        31.4660   17.8400   28.0270 C.2    12  GLU12       0.3649
     20  OE1       32.4320   17.2720   27.4800 O.co2  12  GLU12      -0.2457
     21  OE2       31.4180   18.0590   29.2630 O.co2  12  GLU12      -0.2457
     22  N         31.4960   22.7140   25.5230 N.am   13  GLY13      -0.1940
     23  CA        31.6030   23.6920   24.4680 C.3    13  GLY13       0.2014
     24  C         32.4660   23.1550   23.3580 C.2    13  GLY13       0.2639
     25  O         33.3220   22.2950   23.5710 O.2    13  GLY13      -0.2714
     26  N         32.2320   23.6790   22.1660 N.am   14  THR14      -0.1950
     27  CA        32.9480   23.2730   20.9740 C.3    14  THR14       0.1897
     28  C         34.4290   23.5900   21.0930 C.2    14  THR14       0.2313
     29  O         35.2000   23.3580   20.1650 O.2    14  THR14      -0.2863
     30  CB        32.3650   23.9950   19.7460 C.3    14  THR14       0.1794
     31  OG1       32.5700   25.4020   19.8930 O.3    14  THR14      -0.2208
     32  CG2       30.8600   23.7380   19.6390 C.3    14  THR14       0.0378
     33  N         31.7810   24.2720   29.6790 N.3    18  VAL18      -0.1245
     34  CA        31.1650   25.4770   30.2280 C.3    18  VAL18       0.1561
     35  C         30.4060   25.2700   31.5410 C.2    18  VAL18       0.2260
     36  O         29.5120   24.4320   31.6410 O.2    18  VAL18      -0.2867
     37  CB        30.2310   26.1380   29.2090 C.3    18  VAL18       0.0252
     38  CG1       29.6850   27.4560   29.7780 C.3    18  VAL18       0.0019
     39  CG2       30.9840   26.4040   27.9200 C.3    18  VAL18       0.0019
     40  N         28.9630   32.5820   33.2680 N.3    31  ALA31      -0.1245
     41  CA        29.2320   31.3660   32.5290 C.3    31  ALA31       0.1562
     42  C         30.7500   31.3170   32.3930 C.2    31  ALA31       0.2260
     43  O         31.3580   32.1960   31.7920 O.2    31  ALA31      -0.2867
     44  CB        28.5760   31.4280   31.1590 C.3    31  ALA31       0.0290
     45  N         33.7920   29.6410   30.7700 N.3    33  LYS33      -0.1245
     46  CA        34.2280   28.7440   29.6950 C.3    33  LYS33       0.1561
     47  C         35.7150   28.3700   29.8650 C.2    33  LYS33       0.2260
     48  O         36.5860   29.2340   29.8900 O.2    33  LYS33      -0.2867
     49  CB        34.0230   29.4040   28.3260 C.3    33  LYS33       0.0271
     50  CG        34.3260   28.4910   27.1520 C.3    33  LYS33       0.0035
     51  CD        34.3810   29.2520   25.8180 C.3    33  LYS33       0.0206
     52  CE        34.1470   28.3120   24.6310 C.3    33  LYS33       0.1093
     53  NZ        34.5950   26.9060   24.9190 N.3    33  LYS33      -0.1314
     54  N         26.2130   37.8020   23.2340 N.3    51  VAL51      -0.1245
     55  CA        26.5390   37.4320   24.6040 C.3    51  VAL51       0.1561
     56  C         27.8350   38.1450   25.0060 C.2    51  VAL51       0.2260
     57  O         28.8820   37.9630   24.3720 O.2    51  VAL51      -0.2867
     58  CB        26.7220   35.9040   24.7360 C.3    51  VAL51       0.0252
     59  CG1       27.1050   35.5480   26.1550 C.3    51  VAL51       0.0019
     60  CG2       25.4220   35.1900   24.3480 C.3    51  VAL51       0.0019
     61  N         31.6260   34.8580   30.5450 N.3    67  PHE67      -0.1227
     62  CA        30.5470   35.4850   29.7990 C.3    67  PHE67       0.1736
     63  C         29.3430   35.7330   30.6720 C.2    67  PHE67       0.2595
     64  O         29.1960   35.1040   31.7200 O.2    67  PHE67      -0.2718
     65  CB        30.1170   34.5830   28.6390 C.3    67  PHE67       0.0547
     66  CG        31.1960   34.3350   27.6300 C.ar   67  PHE67      -0.0202
     67  CD1       31.4000   35.2190   26.5740 C.ar   67  PHE67      -0.0042
     68  CD2       32.0280   33.2310   27.7460 C.ar   67  PHE67      -0.0042
     69  CE1       32.4150   35.0020   25.6570 C.ar   67  PHE67      -0.0003
     70  CE2       33.0530   33.0110   26.8210 C.ar   67  PHE67      -0.0003
     71  CZ        33.2420   33.8990   25.7810 C.ar   67  PHE67      -0.0000
     72  N         28.4810   36.6480   30.2410 N.am   68  GLU68      -0.1965
     73  CA        27.2590   36.9230   30.9770 C.3    68  GLU68       0.1733
     74  C         26.5180   35.6010   30.8790 C.2    68  GLU68       0.2616
     75  O         26.7220   34.8460   29.9330 O.2    68  GLU68      -0.2715
     76  CB        26.4200   38.0220   30.3030 C.3    68  GLU68       0.0429
     77  CG        25.7460   37.5960   28.9970 C.3    68  GLU68       0.1163
     78  CD        24.7630   38.6270   28.4530 C.2    68  GLU68       0.3649
     79  OE1       23.6660   38.7960   29.0270 O.co2  68  GLU68      -0.2457
     80  OE2       25.0860   39.2760   27.4460 O.co2  68  GLU68      -0.2457
     81  N         25.6590   35.3200   31.8420 N.am   69  PHE69      -0.1960
     82  CA        24.9120   34.0690   31.8220 C.3    69  PHE69       0.1771
     83  C         23.4480   34.2550   31.4280 C.2    69  PHE69       0.2619
     84  O         22.7870   35.1970   31.8650 O.2    69  PHE69      -0.2715
     85  CB        24.9890   33.3990   33.1940 C.3    69  PHE69       0.0574
     86  CG        24.0670   32.2290   33.3480 C.ar   69  PHE69      -0.0200
     87  CD1       24.4780   30.9540   32.9940 C.ar   69  PHE69      -0.0042
     88  CD2       22.7820   32.4060   33.8480 C.ar   69  PHE69      -0.0042
     89  CE1       23.6290   29.8700   33.1370 C.ar   69  PHE69      -0.0003
     90  CE2       21.9150   31.3240   33.9960 C.ar   69  PHE69      -0.0003
     91  CZ        22.3380   30.0550   33.6420 C.ar   69  PHE69      -0.0000
     92  N         22.9670   33.3550   30.5780 N.am   70  LEU70      -0.1963
     93  CA        21.5700   33.3380   30.1530 C.3    70  LEU70       0.1728
     94  C         21.0780   31.9230   30.4790 C.2    70  LEU70       0.2616
     95  O         21.8360   30.9520   30.3520 O.2    70  LEU70      -0.2715
     96  CB        21.4290   33.6420   28.6580 C.3    70  LEU70       0.0311
     97  CG        21.8160   35.0830   28.3150 C.3    70  LEU70       0.0022
     98  CD1       23.3300   35.1710   28.2380 C.3    70  LEU70       0.0001
     99  CD2       21.1890   35.5230   26.9970 C.3    70  LEU70       0.0001
    100  N         19.8150   31.8040   30.8770 N.am   71  HIS71      -0.1959
    101  CA        19.2760   30.5120   31.2860 C.3    71  HIS71       0.1787
    102  C         18.9730   29.4430   30.2340 C.2    71  HIS71       0.2620
    103  O         19.1380   28.2650   30.5070 O.2    71  HIS71      -0.2715
    104  CB        18.0410   30.7320   32.1700 C.3    71  HIS71       0.0785
    105  CG        18.3230   31.5130   33.4160 C.ar   71  HIS71       0.0821
    106  ND1       18.6800   32.8470   33.3970 N.ar   71  HIS71      -0.2267
    107  CD2       18.3020   31.1480   34.7210 C.ar   71  HIS71       0.1154
    108  CE1       18.8650   33.2690   34.6370 C.ar   71  HIS71       0.1986
    109  NE2       18.6400   32.2590   35.4600 N.ar   71  HIS71      -0.2212
    110  N         18.5380   29.8130   29.0390 N.am   72  GLN72      -0.1963
    111  CA        18.2390   28.7690   28.0620 C.3    72  GLN72       0.1733
    112  C         18.7840   29.0340   26.6580 C.2    72  GLN72       0.2616
    113  O         19.0300   30.1780   26.2930 O.2    72  GLN72      -0.2715
    114  CB        16.7200   28.5570   27.9950 C.3    72  GLN72       0.0408
    115  CG        16.3070   27.2200   27.3820 C.3    72  GLN72       0.0908
    116  CD        14.8180   26.9940   27.4610 C.2    72  GLN72       0.2608
    117  OE1       14.1020   27.1750   26.4770 O.2    72  GLN72      -0.2717
    118  NE2       14.3330   26.6130   28.6470 N.am   72  GLN72      -0.0878
    119  N         18.9810   27.9700   25.8820 N.am   73  ASP73      -0.1971
    120  CA        19.4630   28.1030   24.5090 C.3    73  ASP73       0.1709
    121  C         18.3630   27.7170   23.5160 C.2    73  ASP73       0.2293
    122  O         17.4510   26.9530   23.8440 O.2    73  ASP73      -0.2864
    123  CB        20.7410   27.2670   24.2720 C.3    73  ASP73       0.1436
    124  CG        20.5030   25.7660   24.3170 C.2    73  ASP73       0.3671
    125  OD1       19.4900   25.2910   23.7710 O.co2  73  ASP73      -0.2456
    126  OD2       21.3560   25.0500   24.8770 O.co2  73  ASP73      -0.2456
    127  N         17.2790   23.9860   23.0630 N.3    76  LYS76      -0.1245
    128  CA        16.4270   23.4980   24.1360 C.3    76  LYS76       0.1561
    129  C         15.0170   24.0810   24.0470 C.2    76  LYS76       0.2260
    130  O         14.0440   23.4200   24.4140 O.2    76  LYS76      -0.2867
    131  CB        17.0540   23.8250   25.4980 C.3    76  LYS76       0.0271
    132  CG        16.1470   23.5140   26.6800 C.3    76  LYS76       0.0035
    133  CD        16.9170   23.4460   27.9900 C.3    76  LYS76       0.0206
    134  CE        15.9680   23.3670   29.1870 C.3    76  LYS76       0.1093
    135  NZ        16.7120   23.1410   30.4750 N.3    76  LYS76      -0.1314
    136  N         22.1750   25.6270   19.4760 N.3   118  GLN118     -0.1231
    137  CA        22.8210   25.5280   20.7880 C.3   118  GLN118      0.1698
    138  C         23.5630   26.8060   21.2220 C.2   118  GLN118      0.2592
    139  O         23.6320   27.1100   22.4170 O.2   118  GLN118     -0.2718
    140  CB        23.8060   24.3480   20.8180 C.3   118  GLN118      0.0381
    141  CG        23.2050   22.9710   20.5660 C.3   118  GLN118      0.0905
    142  CD        23.3500   22.5110   19.1200 C.2   118  GLN118      0.2608
    143  OE1       22.5110   22.8160   18.2660 O.2   118  GLN118     -0.2717
    144  NE2       24.4420   21.7780   18.8350 N.am  118  GLN118     -0.0878
    145  N         24.1290   27.5480   20.2770 N.am  119  ASN119     -0.1974
    146  CA        24.8320   28.7690   20.6590 C.3   119  ASN119      0.1688
    147  C         24.0260   30.0530   20.4970 C.2   119  ASN119      0.2292
    148  O         24.5810   31.1400   20.3200 O.2   119  ASN119     -0.2864
    149  CB        26.1880   28.8810   19.9490 C.3   119  ASN119      0.1181
    150  CG        26.0840   28.8430   18.4410 C.2   119  ASN119      0.2629
    151  OD1       25.5650   29.7610   17.8090 O.2   119  ASN119     -0.2716
    152  ND2       26.6030   27.7760   17.8500 N.am  119  ASN119     -0.0877
    153  N         21.4320   32.0190   22.6950 N.3   121  LEU121     -0.1245
    154  CA        20.8660   32.0780   24.0370 C.3   121  LEU121      0.1561
    155  C         19.7010   33.0510   24.1790 C.2   121  LEU121      0.2260
    156  O         19.7320   34.1410   23.6220 O.2   121  LEU121     -0.2867
    157  CB        21.9490   32.4620   25.0380 C.3   121  LEU121      0.0270
    158  CG        23.2970   31.7440   24.9030 C.3   121  LEU121      0.0019
    159  CD1       24.1860   32.2250   26.0190 C.3   121  LEU121      0.0001
    160  CD2       23.1310   30.2280   24.9400 C.3   121  LEU121      0.0001
    161  N         26.3250   33.3860   20.9060 N.3   131  ALA131     -0.1231
    162  CA        27.3540   32.8900   21.8150 C.3   131  ALA131      0.1694
    163  C         28.5020   32.2330   21.0640 C.2   131  ALA131      0.2592
    164  O         28.2810   31.5850   20.0370 O.2   131  ALA131     -0.2718
    165  CB        26.7400   31.8940   22.8160 C.3   131  ALA131      0.0304
    166  N         29.7170   32.3790   21.5950 N.am  132  ASP132     -0.1974
    167  CA        30.9350   31.8170   20.9700 C.3   132  ASP132      0.1709
    168  C         31.3500   32.6480   19.7530 C.2   132  ASP132      0.2293
    169  O         31.8860   32.1180   18.7820 O.2   132  ASP132     -0.2864
    170  CB        30.7120   30.3770   20.5020 C.3   132  ASP132      0.1436
    171  CG        30.4170   29.4260   21.6370 C.2   132  ASP132      0.3671
    172  OD1       31.2900   29.2430   22.5080 O.co2 132  ASP132     -0.2456
    173  OD2       29.3180   28.8410   21.6590 O.co2 132  ASP132     -0.2456
    174  N         35.4240   33.2630   18.3260 N.3   135  LEU135     -0.1245
    175  CA        36.3180   32.2580   18.8730 C.3   135  LEU135      0.1561
    176  C         36.9460   31.3200   17.8340 C.2   135  LEU135      0.2260
    177  O         37.9920   30.7150   18.0960 O.2   135  LEU135     -0.2867
    178  CB        35.5890   31.4510   19.9620 C.3   135  LEU135      0.0270
    179  CG        35.3730   32.1290   21.3280 C.3   135  LEU135      0.0019
    180  CD1       34.2270   33.1290   21.2920 C.3   135  LEU135      0.0001
    181  CD2       35.0650   31.0590   22.3470 C.3   135  LEU135      0.0001
@<TRIPOS>BOND
     1   151   150    2
     2   176   177    2
     3   176   175    1
     4   152   150   am
     5   143   142    2
     6   174   175    1
     7   150   149    1
     8   169   168    2
     9   144   142   am
    10   175   178    1
    11   142   141    1
    12   136   137    1
    13    32    30    1
    14    30    31    1
    15    30    27    1
    16   168   167    1
    17   149   146    1
    18   178   179    1
    19   164   163    2
    20    29    28    2
    21   145   146    1
    22   145   138   am
    23   148   147    2
    24   147   146    1
    25   170   167    1
    26   170   171    1
    27   141   140    1
    28   137   140    1
    29   137   138    1
    30   161   162    1
    31   167   166    1
    32    27    28    1
    33    27    26    1
    34   163   166   am
    35   163   162    1
    36   138   139    2
    37   180   179    1
    38   179   181    1
    39   171   173   ar
    40   171   172   ar
    41   162   165    1
    42    26    24   am
    43   153   154    1
    44   127   128    1
    45    54    55    1
    46    24    25    2
    47    24    23    1
    48   121   122    2
    49   121   120    1
    50   156   155    2
    51   125   124   ar
    52   154   155    1
    53   154   157    1
    54   129   128    1
    55   129   130    2
    56   128   131    1
    57   123   124    1
    58   123   120    1
    59   124   126   ar
    60    60    58    1
    61    57    56    2
    62    23    22    1
    63   120   119    1
    64    16    15    2
    65    55    58    1
    66    55    56    1
    67    52    53    1
    68    52    51    1
    69    58    59    1
    70   158   160    1
    71   158   157    1
    72   158   159    1
    73    15    22   am
    74    15    14    1
    75   131   132    1
    76    69    71   ar
    77    69    67   ar
    78    71    70   ar
    79    51    50    1
    80   119   112   am
    81    17    14    1
    82    17    18    1
    83   113   112    2
    84   117   116    2
    85    67    66   ar
    86    14    13    1
    87   112   111    1
    88   132   133    1
    89    70    68   ar
    90    99    97    1
    91    50    49    1
    92    18    19    1
    93    13    11   am
    94   115   116    1
    95   115   114    1
    96    80    78   ar
    97   116   118   am
    98    20    19   ar
    99    66    68   ar
   100    66    65    1
   101    39    37    1
   102   133   134    1
   103   114   111    1
   104    19    21   ar
   105   111   110    1
   106    98    97    1
   107    11    12    2
   108    11    10    1
   109    97    96    1
   110    49    46    1
   111    78    77    1
   112    78    79   ar
   113    65    62    1
   114    96    93    1
   115    10     9    1
   116    77    76    1
   117   110   102   am
   118   134   135    1
   119    37    38    1
   120    37    34    1
   121    33    34    1
   122    46    47    1
   123    46    45    1
   124    62    61    1
   125    62    63    1
   126    47    48    2
   127     9     3   am
   128    75    74    2
   129    93    94    1
   130    93    92    1
   131     7     5    1
   132    34    35    1
   133   102   103    2
   134   102   101    1
   135    72    63   am
   136    72    73    1
   137    76    73    1
   138    95    94    2
   139    94   100   am
   140    92    83   am
   141    63    64    2
   142     4     3    2
   143     3     2    1
   144   100   101    1
   145    74    73    1
   146    74    81   am
   147    44    41    1
   148   101   104    1
   149     5     2    1
   150     5     6    1
   151    83    82    1
   152    83    84    2
   153    35    36    2
   154    43    42    2
   155    82    81    1
   156    82    85    1
   157     2     1    1
   158   104   105    1
   159    42    41    1
   160     6     8    1
   161    41    40    1
   162    87    89   ar
   163    87    86   ar
   164    89    91   ar
   165    85    86    1
   166    86    88   ar
   167   106   105   ar
   168   106   108   ar
   169   105   107   ar
   170    91    90   ar
   171    88    90   ar
   172   108   109   ar
   173   107   109   ar
