@<TRIPOS>MOLECULE
tmp/2dv7B00.pdb
 118 113 0 0 0
SMALL
GASTEIGER

@<TRIPOS>ATOM
      1  N         29.9370  108.1070   58.1170 N.3     9  GLY9       -0.1210
      2  CA        31.1340  107.7290   58.8270 C.3     9  GLY9        0.1956
      3  C         31.7840  108.8180   59.6620 C.2     9  GLY9        0.2611
      4  O         31.1850  109.8460   59.9970 O.2     9  GLY9       -0.2717
      5  N         33.0580  108.5900   59.9410 N.am   10  LEU10      -0.1979
      6  CA        33.8570  109.4300   60.8170 C.3    10  LEU10       0.1596
      7  C         34.4840  110.7530   60.4050 C.2    10  LEU10       0.2287
      8  O         34.2690  111.7650   61.0600 O.2    10  LEU10      -0.2864
      9  CB        34.9740  108.5600   61.4020 C.3    10  LEU10       0.0297
     10  CG        34.5460  107.3310   62.2180 C.3    10  LEU10       0.0022
     11  CD1       35.7040  106.3320   62.3080 C.3    10  LEU10       0.0001
     12  CD2       34.0650  107.7830   63.6040 C.3    10  LEU10       0.0001
     13  N         23.9450  117.6690   63.4600 N.3    36  THR36      -0.1203
     14  CA        24.2700  116.8100   64.5950 C.3    36  THR36       0.1994
     15  C         25.7840  116.6950   64.7470 C.2    36  THR36       0.2619
     16  O         26.3300  116.4830   65.8210 O.2    36  THR36      -0.2717
     17  CB        23.6600  115.4240   64.3690 C.3    36  THR36       0.1784
     18  OG1       24.2400  114.8350   63.2000 O.3    36  THR36      -0.2211
     19  CG2       22.1440  115.5320   64.1720 C.3    36  THR36       0.0376
     20  N         26.4560  116.7910   63.5870 N.am   37  SER37      -0.1937
     21  CA        27.9100  116.7590   63.5690 C.3    37  SER37       0.2055
     22  C         28.4400  117.2310   62.2120 C.2    37  SER37       0.2642
     23  O         27.6870  117.5780   61.3120 O.2    37  SER37      -0.2714
     24  CB        28.3710  115.3260   63.8450 C.3    37  SER37       0.2130
     25  OG        29.7990  115.2870   63.8760 O.3    37  SER37      -0.2179
     26  N         29.7520  117.2340   62.0150 N.am   38  LEU38      -0.1977
     27  CA        30.3190  117.6190   60.7280 C.3    38  LEU38       0.1596
     28  C         31.2950  116.5490   60.2730 C.2    38  LEU38       0.2287
     29  O         31.6000  115.6190   61.0210 O.2    38  LEU38      -0.2864
     30  CB        31.0580  118.9630   60.8280 C.3    38  LEU38       0.0297
     31  CG        30.2600  120.2380   61.1400 C.3    38  LEU38       0.0022
     32  CD1       31.2340  121.4060   61.3030 C.3    38  LEU38       0.0001
     33  CD2       29.2550  120.5320   60.0250 C.3    38  LEU38       0.0001
     34  N         26.3390  112.3450   59.2900 N.3    85  PRO85      -0.2102
     35  CA        27.7120  112.0140   59.6860 C.3    85  PRO85       0.1504
     36  C         27.6350  110.8060   60.6190 C.2    85  PRO85       0.2576
     37  O         26.5950  110.5620   61.2280 O.2    85  PRO85      -0.2718
     38  CB        28.1710  113.2700   60.4260 C.3    85  PRO85       0.0282
     39  CG        27.3400  114.3660   59.8070 C.3    85  PRO85       0.0208
     40  CD        25.9830  113.7170   59.6960 C.3    85  PRO85       0.0893
     41  N         28.7240  110.0560   60.7300 N.am   86  GLY86      -0.1943
     42  CA        28.7300  108.9050   61.6160 C.3    86  GLY86       0.2014
     43  C         27.8190  107.7510   61.2150 C.2    86  GLY86       0.2638
     44  O         27.7520  107.3690   60.0430 O.2    86  GLY86      -0.2714
     45  N         27.1290  107.1980   62.2120 N.am   87  ASP87      -0.1971
     46  CA        26.2140  106.0640   62.0530 C.3    87  ASP87       0.1709
     47  C         24.8080  106.5820   62.3260 C.2    87  ASP87       0.2293
     48  O         24.5510  107.1780   63.3730 O.2    87  ASP87      -0.2864
     49  CB        26.5980  104.9680   63.0660 C.3    87  ASP87       0.1436
     50  CG        25.8410  103.6480   62.8560 C.2    87  ASP87       0.3671
     51  OD1       25.3180  103.4050   61.7520 O.co2  87  ASP87      -0.2456
     52  OD2       25.7960  102.8360   63.8060 O.co2  87  ASP87      -0.2456
     53  N         22.4730  107.1150   65.8700 N.3    90  VAL90      -0.1231
     54  CA        23.2290  107.3310   67.0930 C.3    90  VAL90       0.1692
     55  C         22.8650  108.6900   67.7000 C.2    90  VAL90       0.2592
     56  O         22.8000  108.8840   68.9050 O.2    90  VAL90      -0.2718
     57  CB        24.7250  107.2630   66.7910 C.3    90  VAL90       0.0266
     58  CG1       25.5190  107.6940   68.0250 C.3    90  VAL90       0.0020
     59  CG2       25.1010  105.8300   66.4440 C.3    90  VAL90       0.0020
     60  N         22.6410  109.6660   66.8020 N.am   91  ALA91      -0.1966
     61  CA        22.1320  110.9530   67.2580 C.3    91  ALA91       0.1728
     62  C         20.6950  110.8160   67.7650 C.2    91  ALA91       0.2616
     63  O         19.7840  110.4010   67.0580 O.2    91  ALA91      -0.2715
     64  CB        22.1610  111.9180   66.0740 C.3    91  ALA91       0.0334
     65  N         20.5030  111.1460   69.0330 N.am   92  THR92      -0.1951
     66  CA        19.2160  111.0020   69.6970 C.3    92  THR92       0.1897
     67  C         17.9520  111.2180   68.8490 C.2    92  THR92       0.2313
     68  O         17.0770  110.3490   68.8060 O.2    92  THR92      -0.2863
     69  CB        19.1520  111.9300   70.9410 C.3    92  THR92       0.1794
     70  OG1       20.2200  111.5990   71.8380 O.3    92  THR92      -0.2208
     71  CG2       17.8240  111.7700   71.6700 C.3    92  THR92       0.0378
     72  N         30.7620  103.6950   60.5390 N.3   114  PRO114     -0.2102
     73  CA        31.5130  103.8740   61.7910 C.3   114  PRO114      0.1504
     74  C         31.0490  105.1030   62.5870 C.2   114  PRO114      0.2576
     75  O         30.8130  106.1720   62.0220 O.2   114  PRO114     -0.2718
     76  CB        32.9570  104.0290   61.3150 C.3   114  PRO114      0.0282
     77  CG        32.9850  103.2340   60.0460 C.3   114  PRO114      0.0208
     78  CD        31.6740  103.6100   59.3870 C.3   114  PRO114      0.0893
     79  N         30.9190  104.9260   63.8980 N.am  115  SER115     -0.1938
     80  CA        30.5550  105.9830   64.8240 C.3   115  SER115      0.2055
     81  C         31.7010  106.2520   65.8030 C.2   115  SER115      0.2642
     82  O         32.4770  105.3710   66.1480 O.2   115  SER115     -0.2714
     83  CB        29.3120  105.5120   65.5810 C.3   115  SER115      0.2130
     84  OG        29.0100  106.4260   66.6330 O.3   115  SER115     -0.2179
     85  N         31.8390  107.5220   66.2180 N.am  116  ILE116     -0.1977
     86  CA        32.8730  107.7870   67.2150 C.3   116  ILE116      0.1596
     87  C         32.6230  106.9560   68.4780 C.2   116  ILE116      0.2287
     88  O         33.5320  106.5350   69.1790 O.2   116  ILE116     -0.2864
     89  CB        32.8720  109.2760   67.5440 C.3   116  ILE116      0.0276
     90  CG1       34.0660  109.6130   68.4390 C.3   116  ILE116      0.0022
     91  CG2       31.5870  109.6430   68.3060 C.3   116  ILE116      0.0022
     92  CD1       35.4010  109.4750   67.7060 C.3   116  ILE116      0.0001
     93  N         27.8470  114.8410   76.9270 N.3   135  THR135     -0.1218
     94  CA        28.2700  115.9090   76.0370 C.3   135  THR135      0.1862
     95  C         28.6340  117.1560   76.8330 C.2   135  THR135      0.2287
     96  O         27.8260  117.6530   77.6260 O.2   135  THR135     -0.2866
     97  CB        27.1460  116.2790   75.0720 C.3   135  THR135      0.1770
     98  OG1       26.9000  115.1780   74.1930 O.3   135  THR135     -0.2211
     99  CG2       27.5240  117.5160   74.2620 C.3   135  THR135      0.0375
    100  N         31.3990  113.6620   74.4040 N.3   165  PHE165     -0.1241
    101  CA        31.3050  114.2570   73.0840 C.3   165  PHE165      0.1605
    102  C         31.5190  115.7330   73.3820 C.2   165  PHE165      0.2264
    103  O         31.0000  116.2430   74.3770 O.2   165  PHE165     -0.2867
    104  CB        29.9130  114.0710   72.4940 C.3   165  PHE165      0.0534
    105  CG        29.5180  112.6430   72.3070 C.ar  165  PHE165     -0.0203
    106  CD1       30.0700  111.8830   71.2810 C.ar  165  PHE165     -0.0042
    107  CD2       28.6120  112.0440   73.1740 C.ar  165  PHE165     -0.0042
    108  CE1       29.7280  110.5500   71.1220 C.ar  165  PHE165     -0.0003
    109  CE2       28.2640  110.7070   73.0220 C.ar  165  PHE165     -0.0003
    110  CZ        28.8250  109.9610   71.9950 C.ar  165  PHE165     -0.0000
    111  N         37.6230  114.3830   70.8960 N.3   235  ILE235     -0.1245
    112  CA        36.7570  113.6300   71.7850 C.3   235  ILE235      0.1561
    113  C         37.5870  113.4580   73.0550 C.2   235  ILE235      0.2260
    114  O         38.7830  113.1450   72.9820 O.2   235  ILE235     -0.2867
    115  CB        36.3650  112.2480   71.1770 C.3   235  ILE235      0.0252
    116  CG1       34.8460  112.1080   71.1760 C.3   235  ILE235      0.0019
    117  CG2       36.9760  111.1010   71.9720 C.3   235  ILE235      0.0019
    118  CD1       34.1410  113.1530   70.3310 C.3   235  ILE235      0.0001
@<TRIPOS>BOND
     1     1     2    1
     2     2     3    1
     3    34    35    1
     4    34    40    1
     5    78    77    1
     6    78    72    1
     7     3     5   am
     8     3     4    2
     9    35    38    1
    10    35    36    1
    11    40    39    1
    12    39    38    1
    13     5     6    1
    14    33    31    1
    15    44    43    2
    16    77    76    1
    17    28    27    1
    18    28    29    2
    19     7     6    1
    20     7     8    2
    21    72    73    1
    22    36    41   am
    23    36    37    2
    24    27    30    1
    25    27    26    1
    26    41    42    1
    27     6     9    1
    28    30    31    1
    29    31    32    1
    30    43    42    1
    31    43    45   am
    32    23    22    2
    33    76    73    1
    34     9    10    1
    35    51    50   ar
    36    73    74    1
    37    26    22   am
    38    75    74    2
    39    46    45    1
    40    46    47    1
    41    46    49    1
    42    22    21    1
    43    10    11    1
    44    10    12    1
    45    47    48    2
    46    74    79   am
    47    50    49    1
    48    50    52   ar
    49    18    17    1
    50    13    14    1
    51    21    20    1
    52    21    24    1
    53    20    15   am
    54    24    25    1
    55    79    80    1
    56    19    17    1
    57    17    14    1
    58    14    15    1
    59    15    16    2
    60    80    83    1
    61    80    81    1
    62    83    84    1
    63    81    82    2
    64    81    85   am
    65    53    54    1
    66    64    61    1
    67    85    86    1
    68    59    57    1
    69    57    54    1
    70    57    58    1
    71    60    61    1
    72    60    55   am
    73    63    62    2
    74    54    55    1
    75    86    89    1
    76    86    87    1
    77    61    62    1
    78    89    91    1
    79    89    90    1
    80    55    56    2
    81    92    90    1
    82    62    65   am
    83    87    88    2
    84    68    67    2
    85    67    66    1
    86    65    66    1
    87    66    69    1
    88   118   116    1
    89   111   112    1
    90    69    71    1
    91    69    70    1
    92   108   106   ar
    93   108   110   ar
    94   116   115    1
    95   115   112    1
    96   115   117    1
    97   106   105   ar
    98   112   113    1
    99   110   109   ar
   100   105   104    1
   101   105   107   ar
   102   104   101    1
   103   114   113    2
   104   109   107   ar
   105   101   102    1
   106   101   100    1
   107   102   103    2
   108    98    97    1
   109    99    97    1
   110    97    94    1
   111    94    95    1
   112    94    93    1
   113    95    96    2
