@<TRIPOS>MOLECULE
tmp/2dv9A00.pdb
 88 81 0 0 0
SMALL
GASTEIGER

@<TRIPOS>ATOM
      1  N        124.0650   41.3470   17.7070 N.3    80  ASP80      -0.1239
      2  CA       123.3400   42.3450   16.9380 C.3    80  ASP80       0.1674
      3  C        122.1540   42.7740   17.7900 C.2    80  ASP80       0.2266
      4  O        121.3770   41.9390   18.2490 O.2    80  ASP80      -0.2867
      5  CB       122.8600   41.7380   15.6180 C.3    80  ASP80       0.1410
      6  CG       122.6270   42.7810   14.5490 C.2    80  ASP80       0.3668
      7  OD1      123.5620   43.5630   14.2780 O.co2  80  ASP80      -0.2456
      8  OD2      121.5180   42.8200   13.9760 O.co2  80  ASP80      -0.2456
      9  N        118.9370   43.2080   18.8320 N.3    82  ALA82      -0.1231
     10  CA       117.6220   42.7270   18.4060 C.3    82  ALA82       0.1694
     11  C        116.9790   42.0050   19.5890 C.2    82  ALA82       0.2592
     12  O        117.6810   41.6660   20.5420 O.2    82  ALA82      -0.2718
     13  CB       117.7810   41.7800   17.2250 C.3    82  ALA82       0.0304
     14  N        115.6710   41.7380   19.5420 N.am   83  ASP83      -0.1974
     15  CA       114.7940   42.0690   18.4180 C.3    83  ASP83       0.1709
     16  C        113.8030   43.2110   18.6720 C.2    83  ASP83       0.2293
     17  O        113.3170   43.8440   17.7250 O.2    83  ASP83      -0.2864
     18  CB       114.0140   40.8220   17.9990 C.3    83  ASP83       0.1436
     19  CG       114.7430   39.9990   16.9620 C.2    83  ASP83       0.3671
     20  OD1      114.8000   40.4350   15.7930 O.co2  83  ASP83      -0.2456
     21  OD2      115.2630   38.9210   17.3170 O.co2  83  ASP83      -0.2456
     22  N        110.5300   30.5710   17.9290 N.3   101  ILE101     -0.1245
     23  CA       111.9030   30.7910   17.4910 C.3   101  ILE101      0.1561
     24  C        112.3590   32.1940   17.8580 C.2   101  ILE101      0.2260
     25  O        113.4400   32.6320   17.4620 O.2   101  ILE101     -0.2867
     26  CB       112.0450   30.6130   15.9640 C.3   101  ILE101      0.0252
     27  CG1      111.3860   31.7790   15.2270 C.3   101  ILE101      0.0019
     28  CG2      111.4010   29.3010   15.5380 C.3   101  ILE101      0.0019
     29  CD1      111.7040   31.8070   13.7530 C.3   101  ILE101      0.0001
     30  N        113.2390   35.8150   17.8520 N.3   103  GLY103     -0.1210
     31  CA       113.5760   36.6910   16.7530 C.3   103  GLY103      0.1956
     32  C        112.4770   37.6880   16.4670 C.2   103  GLY103      0.2612
     33  O        111.9210   38.2830   17.3820 O.2   103  GLY103     -0.2717
     34  N        112.1640   37.8580   15.1890 N.am  104  GLY104     -0.1956
     35  CA       111.1360   38.8010   14.7820 C.3   104  GLY104      0.1869
     36  C        109.7090   38.4460   15.1620 C.2   104  GLY104      0.2309
     37  O        108.7940   39.2180   14.8800 O.2   104  GLY104     -0.2863
     38  N        115.0010   45.5230   14.4860 N.3   125  TYR125     -0.1241
     39  CA       115.6800   44.7570   13.4440 C.3   125  TYR125      0.1605
     40  C        114.6820   44.5610   12.3110 C.2   125  TYR125      0.2264
     41  O        113.4970   44.3690   12.5570 O.2   125  TYR125     -0.2867
     42  CB       116.1700   43.4070   13.9760 C.3   125  TYR125      0.0534
     43  CG       116.7400   42.5180   12.8950 C.ar  125  TYR125     -0.0201
     44  CD1      115.9130   41.6750   12.1510 C.ar  125  TYR125     -0.0009
     45  CD2      118.0940   42.5730   12.5600 C.ar  125  TYR125     -0.0009
     46  CE1      116.4100   40.9150   11.0980 C.ar  125  TYR125      0.0417
     47  CE2      118.6070   41.8150   11.5010 C.ar  125  TYR125      0.0417
     48  CZ       117.7570   40.9900   10.7740 C.ar  125  TYR125      0.1957
     49  OH       118.2450   40.2550    9.7140 O.3   125  TYR125     -0.2866
     50  N        113.0130   42.3930    9.7780 N.3   127  ASN127     -0.1240
     51  CA       112.7160   41.0410    9.3190 C.3   127  ASN127      0.1653
     52  C        111.8630   41.1110    8.0520 C.2   127  ASN127      0.2266
     53  O        110.6520   41.3250    8.1130 O.2   127  ASN127     -0.2867
     54  CB       111.9560   40.2620   10.3940 C.3   127  ASN127      0.1155
     55  CG       112.8100   39.9550   11.6030 C.2   127  ASN127      0.2627
     56  OD1      113.1790   40.8480   12.3530 O.2   127  ASN127     -0.2716
     57  ND2      113.1390   38.6790   11.7910 N.am  127  ASN127     -0.0877
     58  N        110.8010   38.8470    6.2270 N.3   129  GLU129     -0.1245
     59  CA       109.7800   37.8130    6.1560 C.3   129  GLU129      0.1567
     60  C        108.4860   38.3010    6.8130 C.2   129  GLU129      0.2260
     61  O        107.4540   37.6320    6.7610 O.2   129  GLU129     -0.2867
     62  CB       110.2630   36.5180    6.8280 C.3   129  GLU129      0.0388
     63  CG       110.5180   36.6280    8.3240 C.3   129  GLU129      0.1160
     64  CD       111.9370   37.0400    8.6440 C.2   129  GLU129      0.3649
     65  OE1      112.4960   37.8890    7.9200 O.co2 129  GLU129     -0.2457
     66  OE2      112.4920   36.5170    9.6290 O.co2 129  GLU129     -0.2457
     67  N        117.4430   36.1240   18.8830 N.3   211  SER211     -0.1202
     68  CA       117.7720   34.9310   18.1190 C.3   211  SER211      0.2020
     69  C        119.1560   34.4500   18.5380 C.2   211  SER211      0.2619
     70  O        119.6220   34.7550   19.6360 O.2   211  SER211     -0.2717
     71  CB       117.7430   35.2430   16.6200 C.3   211  SER211      0.2103
     72  OG       118.6200   36.3080   16.3010 O.3   211  SER211     -0.2182
     73  N        119.8110   33.6890   17.6730 N.am  212  LEU212     -0.1965
     74  CA       121.1440   33.2030   17.9850 C.3   212  LEU212      0.1728
     75  C        122.1290   34.3640   17.8870 C.2   212  LEU212      0.2617
     76  O        122.9380   34.5800   18.7840 O.2   212  LEU212     -0.2715
     77  CB       121.5400   32.0770   17.0180 C.3   212  LEU212      0.0311
     78  CG       122.8600   31.3400   17.2740 C.3   212  LEU212      0.0022
     79  CD1      122.8420   29.9860   16.5960 C.3   212  LEU212      0.0001
     80  CD2      124.0110   32.1660   16.7600 C.3   212  LEU212      0.0001
     81  N        122.0360   35.1210   16.8010 N.am  213  GLY213     -0.1940
     82  CA       122.9410   36.2380   16.6050 C.3   213  GLY213      0.2014
     83  C        122.4230   37.5920   17.0480 C.2   213  GLY213      0.2639
     84  O        123.2080   38.5250   17.2260 O.2   213  GLY213     -0.2714
     85  N        121.1080   37.7070   17.2240 N.am  214  GLY214     -0.1954
     86  CA       120.5180   38.9660   17.6500 C.3   214  GLY214      0.1869
     87  C        120.1280   38.9440   19.1170 C.2   214  GLY214      0.2309
     88  O        119.2480   38.1820   19.5310 O.2   214  GLY214     -0.2863
@<TRIPOS>BOND
     1    59    58    1
     2    59    60    1
     3    59    62    1
     4    61    60    2
     5    62    63    1
     6    65    64   ar
     7    52    53    2
     8    52    51    1
     9    63    64    1
    10    64    66   ar
    11    51    50    1
    12    51    54    1
    13    49    48    1
    14    54    55    1
    15    48    46   ar
    16    48    47   ar
    17    46    44   ar
    18    47    45   ar
    19    55    57   am
    20    55    56    2
    21    44    43   ar
    22    40    41    2
    23    40    39    1
    24    45    43   ar
    25    43    42    1
    26    39    42    1
    27    39    38    1
    28    29    27    1
    29     8     6   ar
    30     7     6   ar
    31     6     5    1
    32    35    36    1
    33    35    34    1
    34    37    36    2
    35    34    32   am
    36    27    26    1
    37    28    26    1
    38     5     2    1
    39    20    19   ar
    40    26    23    1
    41    72    71    1
    42    32    31    1
    43    32    33    2
    44    79    78    1
    45    82    81    1
    46    82    83    1
    47    71    68    1
    48    31    30    1
    49    80    78    1
    50    81    75   am
    51     2     1    1
    52     2     3    1
    53    19    21   ar
    54    19    18    1
    55    77    78    1
    56    77    74    1
    57    83    85   am
    58    83    84    2
    59    85    86    1
    60    13    10    1
    61    25    24    2
    62    23    24    1
    63    23    22    1
    64    86    87    1
    65    73    74    1
    66    73    69   am
    67    17    16    2
    68     3     4    2
    69    75    74    1
    70    75    76    2
    71    18    15    1
    72    68    69    1
    73    68    67    1
    74    10     9    1
    75    10    11    1
    76    15    16    1
    77    15    14    1
    78    69    70    2
    79    87    88    2
    80    14    11   am
    81    11    12    2
