@<TRIPOS>MOLECULE
tmp/2dvaA00.pdb
 96 88 0 0 0
SMALL
GASTEIGER

@<TRIPOS>ATOM
      1  N        116.4860   32.1990   20.4010 N.3    41  ASN41      -0.1240
      2  CA       115.0400   32.3720   20.2370 C.3    41  ASN41       0.1653
      3  C        114.3190   32.6120   21.5540 C.2    41  ASN41       0.2266
      4  O        113.2830   32.0060   21.8220 O.2    41  ASN41      -0.2867
      5  CB       114.4320   31.1330   19.5640 C.3    41  ASN41       0.1155
      6  CG       114.9100   30.9450   18.1370 C.2    41  ASN41       0.2627
      7  OD1      114.5870   29.9480   17.4900 O.2    41  ASN41      -0.2716
      8  ND2      115.6770   31.9030   17.6370 N.am   41  ASN41      -0.0877
      9  N        123.0500   41.3920   17.2410 N.3    80  ASP80      -0.1239
     10  CA       122.3270   42.4140   16.5070 C.3    80  ASP80       0.1674
     11  C        121.1540   42.7970   17.4160 C.2    80  ASP80       0.2266
     12  O        120.4310   41.9300   17.8960 O.2    80  ASP80      -0.2867
     13  CB       121.8440   41.8220   15.1810 C.3    80  ASP80       0.1410
     14  CG       121.2080   42.8520   14.2700 C.2    80  ASP80       0.3668
     15  OD1      121.6890   44.0040   14.2260 O.co2  80  ASP80      -0.2456
     16  OD2      120.2360   42.4970   13.5760 O.co2  80  ASP80      -0.2456
     17  N        117.9320   43.1300   18.5160 N.3    82  ALA82      -0.1231
     18  CA       116.6090   42.6740   18.0850 C.3    82  ALA82       0.1694
     19  C        115.9420   41.9390   19.2530 C.2    82  ALA82       0.2592
     20  O        116.6300   41.5690   20.2010 O.2    82  ALA82      -0.2718
     21  CB       116.7580   41.7500   16.8830 C.3    82  ALA82       0.0304
     22  N        114.6260   41.7090   19.1990 N.am   83  ASP83      -0.1974
     23  CA       113.7630   42.1000   18.0820 C.3    83  ASP83       0.1709
     24  C        112.7860   43.2410   18.3870 C.2    83  ASP83       0.2293
     25  O        112.2660   43.8810   17.4730 O.2    83  ASP83      -0.2864
     26  CB       112.9700   40.8850   17.6050 C.3    83  ASP83       0.1436
     27  CG       113.7400   40.0430   16.6180 C.2    83  ASP83       0.3671
     28  OD1      113.6570   40.3280   15.4060 O.co2  83  ASP83      -0.2456
     29  OD2      114.4380   39.1080   17.0580 O.co2  83  ASP83      -0.2456
     30  N        109.5970   30.5200   17.4940 N.3   101  ILE101     -0.1245
     31  CA       110.9640   30.7580   17.0540 C.3   101  ILE101      0.1561
     32  C        111.4110   32.1400   17.5250 C.2   101  ILE101      0.2260
     33  O        112.5230   32.5770   17.2340 O.2   101  ILE101     -0.2867
     34  CB       111.0920   30.7010   15.5080 C.3   101  ILE101      0.0252
     35  CG1      110.2640   31.8150   14.8680 C.3   101  ILE101      0.0019
     36  CG2      110.6390   29.3330   14.9940 C.3   101  ILE101      0.0019
     37  CD1      110.4450   31.9110   13.3650 C.3   101  ILE101      0.0001
     38  N        112.2850   35.7570   17.6670 N.3   103  GLY103     -0.1210
     39  CA       112.6590   36.6750   16.6110 C.3   103  GLY103      0.1956
     40  C        111.5790   37.6770   16.2410 C.2   103  GLY103      0.2612
     41  O        110.9840   38.3250   17.1100 O.2   103  GLY103     -0.2717
     42  N        111.3220   37.7910   14.9410 N.am  104  GLY104     -0.1956
     43  CA       110.3300   38.7310   14.4470 C.3   104  GLY104      0.1869
     44  C        108.8910   38.4730   14.8620 C.2   104  GLY104      0.2309
     45  O        108.0300   39.3280   14.6470 O.2   104  GLY104     -0.2863
     46  N        113.9560   45.5490   14.1940 N.3   125  TYR125     -0.1241
     47  CA       114.6210   44.7620   13.1560 C.3   125  TYR125      0.1605
     48  C        113.6690   44.5750   11.9870 C.2   125  TYR125      0.2264
     49  O        112.5040   44.2770   12.1840 O.2   125  TYR125     -0.2867
     50  CB       115.0720   43.3990   13.6930 C.3   125  TYR125      0.0534
     51  CG       115.7010   42.5370   12.6200 C.ar  125  TYR125     -0.0201
     52  CD1      114.9130   41.7220   11.8070 C.ar  125  TYR125     -0.0009
     53  CD2      117.0740   42.6030   12.3570 C.ar  125  TYR125     -0.0009
     54  CE1      115.4630   41.0010   10.7590 C.ar  125  TYR125      0.0417
     55  CE2      117.6420   41.8810   11.2990 C.ar  125  TYR125      0.0417
     56  CZ       116.8260   41.0820   10.5050 C.ar  125  TYR125      0.1957
     57  OH       117.3610   40.3710    9.4530 O.3   125  TYR125     -0.2866
     58  N        112.0570   42.5200    9.4430 N.3   127  ASN127     -0.1240
     59  CA       111.7710   41.1740    8.9490 C.3   127  ASN127      0.1653
     60  C        110.9440   41.2750    7.6750 C.2   127  ASN127      0.2266
     61  O        109.7440   41.5520    7.7230 O.2   127  ASN127     -0.2867
     62  CB       110.9850   40.3460    9.9700 C.3   127  ASN127      0.1155
     63  CG       111.7660   40.0830   11.2300 C.2   127  ASN127      0.2627
     64  OD1      111.9910   40.9880   12.0150 O.2   127  ASN127     -0.2716
     65  ND2      112.1960   38.8380   11.4270 N.am  127  ASN127     -0.0877
     66  N        109.9470   38.9540    5.8340 N.3   129  GLU129     -0.1245
     67  CA       108.9170   37.9210    5.8050 C.3   129  GLU129      0.1567
     68  C        107.6230   38.4030    6.4600 C.2   129  GLU129      0.2260
     69  O        106.5820   37.7620    6.3300 O.2   129  GLU129     -0.2867
     70  CB       109.4010   36.6360    6.4930 C.3   129  GLU129      0.0388
     71  CG       109.5950   36.7640    7.9890 C.3   129  GLU129      0.1160
     72  CD       111.0150   37.1150    8.3640 C.2   129  GLU129      0.3649
     73  OE1      111.6590   37.8900    7.6280 O.co2 129  GLU129     -0.2457
     74  OE2      111.4830   36.6220    9.4080 O.co2 129  GLU129     -0.2457
     75  N        116.5150   36.1300   18.5730 N.3   211  SER211     -0.1202
     76  CA       116.8210   34.9520   17.7680 C.3   211  SER211      0.2020
     77  C        118.2110   34.4550   18.1520 C.2   211  SER211      0.2619
     78  O        118.7100   34.7820   19.2320 O.2   211  SER211     -0.2717
     79  CB       116.7680   35.2990   16.2760 C.3   211  SER211      0.2103
     80  OG       117.7080   36.3060   15.9370 O.3   211  SER211     -0.2182
     81  N        118.8380   33.6660   17.2850 N.am  212  LEU212     -0.1965
     82  CA       120.1760   33.1720   17.5930 C.3   212  LEU212      0.1728
     83  C        121.1570   34.3390   17.5770 C.2   212  LEU212      0.2617
     84  O        121.9590   34.4980   18.4960 O.2   212  LEU212     -0.2715
     85  CB       120.6150   32.0990   16.5840 C.3   212  LEU212      0.0311
     86  CG       121.9470   31.3870   16.8930 C.3   212  LEU212      0.0022
     87  CD1      121.9790   30.0190   16.2280 C.3   212  LEU212      0.0001
     88  CD2      123.1140   32.2310   16.4180 C.3   212  LEU212      0.0001
     89  N        121.0740   35.1620   16.5360 N.am  213  GLY213     -0.1940
     90  CA       121.9710   36.2980   16.4190 C.3   213  GLY213      0.2014
     91  C        121.3850   37.6330   16.8430 C.2   213  GLY213      0.2639
     92  O        122.1270   38.5840   17.0910 O.2   213  GLY213     -0.2714
     93  N        120.0600   37.7140   16.9260 N.am  214  GLY214     -0.1954
     94  CA       119.4210   38.9610   17.3210 C.3   214  GLY214      0.1869
     95  C        119.0080   38.9520   18.7780 C.2   214  GLY214      0.2309
     96  O        118.0640   38.2630   19.1550 O.2   214  GLY214     -0.2863
@<TRIPOS>BOND
     1    67    66    1
     2    67    68    1
     3    67    70    1
     4    69    68    2
     5    70    71    1
     6    73    72   ar
     7    60    61    2
     8    60    59    1
     9    71    72    1
    10    72    74   ar
    11    59    58    1
    12    59    62    1
    13    57    56    1
    14    62    63    1
    15    56    54   ar
    16    56    55   ar
    17    54    52   ar
    18    63    65   am
    19    63    64    2
    20    55    53   ar
    21    52    51   ar
    22    48    49    2
    23    48    47    1
    24    53    51   ar
    25    51    50    1
    26    47    50    1
    27    47    46    1
    28    37    35    1
    29    16    14   ar
    30    15    14   ar
    31    14    13    1
    32    43    44    1
    33    43    42    1
    34    45    44    2
    35    35    34    1
    36    42    40   am
    37    36    34    1
    38    13    10    1
    39    28    27   ar
    40    34    31    1
    41    80    79    1
    42    87    86    1
    43    40    39    1
    44    40    41    2
    45    79    76    1
    46    88    86    1
    47    90    89    1
    48    90    91    1
    49    10     9    1
    50    10    11    1
    51    89    83   am
    52    85    86    1
    53    85    82    1
    54    39    38    1
    55    27    29   ar
    56    27    26    1
    57    91    93   am
    58    91    92    2
    59    21    18    1
    60    93    94    1
    61    31    30    1
    62    31    32    1
    63    33    32    2
    64    81    82    1
    65    81    77   am
    66    94    95    1
    67    11    12    2
    68    25    24    2
    69     7     6    2
    70    83    82    1
    71    83    84    2
    72    26    23    1
    73     8     6   am
    74    76    77    1
    75    76    75    1
    76    23    24    1
    77    23    22    1
    78    18    17    1
    79    18    19    1
    80     6     5    1
    81    77    78    2
    82    95    96    2
    83    22    19   am
    84    19    20    2
    85     5     2    1
    86     2     1    1
    87     2     3    1
    88     3     4    2
