@<TRIPOS>MOLECULE
tmp/2dvbA00.pdb
 88 81 0 0 0
SMALL
GASTEIGER

@<TRIPOS>ATOM
      1  N        122.1230   41.1790   16.8350 N.3    80  ASP80      -0.1239
      2  CA       121.3900   42.2400   16.1550 C.3    80  ASP80       0.1674
      3  C        120.3740   42.7310   17.1790 C.2    80  ASP80       0.2266
      4  O        119.7680   41.9290   17.8850 O.2    80  ASP80      -0.2867
      5  CB       120.6670   41.6830   14.9260 C.3    80  ASP80       0.1410
      6  CG       121.4920   41.7970   13.6620 C.2    80  ASP80       0.3668
      7  OD1      122.7290   41.6090   13.7290 O.co2  80  ASP80      -0.2456
      8  OD2      120.8990   42.0710   12.5950 O.co2  80  ASP80      -0.2456
      9  N        117.2740   43.1010   18.1900 N.3    82  ALA82      -0.1231
     10  CA       115.9250   42.6790   17.8060 C.3    82  ALA82       0.1694
     11  C        115.2600   41.9690   18.9970 C.2    82  ALA82       0.2592
     12  O        115.9430   41.6190   19.9630 O.2    82  ALA82      -0.2718
     13  CB       116.0100   41.7400   16.5960 C.3    82  ALA82       0.0304
     14  N        113.9470   41.7320   18.9440 N.am   83  ASP83      -0.1974
     15  CA       113.0880   42.0890   17.8190 C.3    83  ASP83       0.1709
     16  C        112.1200   43.2190   18.1380 C.2    83  ASP83       0.2293
     17  O        111.6010   43.8680   17.2340 O.2    83  ASP83      -0.2864
     18  CB       112.2880   40.8680   17.3790 C.3    83  ASP83       0.1436
     19  CG       112.9880   40.0740   16.3130 C.2    83  ASP83       0.3671
     20  OD1      112.9150   40.4840   15.1360 O.co2  83  ASP83      -0.2456
     21  OD2      113.6190   39.0530   16.6530 O.co2  83  ASP83      -0.2456
     22  N        108.7890   30.6440   17.3010 N.3   101  ILE101     -0.1245
     23  CA       110.1380   30.8500   16.7890 C.3   101  ILE101      0.1561
     24  C        110.6350   32.2050   17.2790 C.2   101  ILE101      0.2260
     25  O        111.7690   32.5920   17.0200 O.2   101  ILE101     -0.2867
     26  CB       110.1890   30.8250   15.2400 C.3   101  ILE101      0.0252
     27  CG1      109.2420   31.8800   14.6630 C.3   101  ILE101      0.0019
     28  CG2      109.8570   29.4160   14.7280 C.3   101  ILE101      0.0019
     29  CD1      109.3700   32.0660   13.1530 C.3   101  ILE101      0.0001
     30  N        111.4950   35.9360   17.4950 N.3   103  GLY103     -0.1210
     31  CA       111.8540   36.8400   16.4240 C.3   103  GLY103      0.1956
     32  C        110.7450   37.7970   16.0300 C.2   103  GLY103      0.2612
     33  O        110.1200   38.4280   16.8840 O.2   103  GLY103     -0.2717
     34  N        110.4990   37.8900   14.7280 N.am  104  GLY104     -0.1956
     35  CA       109.4780   38.7860   14.2100 C.3   104  GLY104      0.1869
     36  C        108.0500   38.5280   14.6620 C.2   104  GLY104      0.2309
     37  O        107.1770   39.3700   14.4490 O.2   104  GLY104     -0.2863
     38  N        113.2480   45.4620   13.9800 N.3   125  TYR125     -0.1241
     39  CA       113.9070   44.7040   12.9210 C.3   125  TYR125      0.1605
     40  C        112.9310   44.4410   11.7960 C.2   125  TYR125      0.2264
     41  O        111.8620   43.8970   12.0190 O.2   125  TYR125     -0.2867
     42  CB       114.4620   43.3730   13.4410 C.3   125  TYR125      0.0534
     43  CG       115.1100   42.5450   12.3490 C.ar  125  TYR125     -0.0201
     44  CD1      114.3350   41.8120   11.4450 C.ar  125  TYR125     -0.0009
     45  CD2      116.4960   42.5490   12.1760 C.ar  125  TYR125     -0.0009
     46  CE1      114.9180   41.1130   10.3950 C.ar  125  TYR125      0.0417
     47  CE2      117.0940   41.8480   11.1240 C.ar  125  TYR125      0.0417
     48  CZ       116.3010   41.1360   10.2410 C.ar  125  TYR125      0.1957
     49  OH       116.8880   40.4440    9.2060 O.3   125  TYR125     -0.2866
     50  N        111.2380   42.5270    9.1450 N.3   127  ASN127     -0.1240
     51  CA       110.9930   41.1690    8.6670 C.3   127  ASN127      0.1653
     52  C        110.1840   41.2380    7.3790 C.2   127  ASN127      0.2266
     53  O        108.9670   41.4490    7.4160 O.2   127  ASN127     -0.2867
     54  CB       110.1990   40.3510    9.6880 C.3   127  ASN127      0.1155
     55  CG       110.9700   40.0930   10.9550 C.2   127  ASN127      0.2627
     56  OD1      111.2760   41.0160   11.6940 O.2   127  ASN127     -0.2716
     57  ND2      111.2910   38.8310   11.2120 N.am  127  ASN127     -0.0877
     58  N        109.1520   39.0120    5.5830 N.3   129  GLU129     -0.1245
     59  CA       108.1120   37.9900    5.5640 C.3   129  GLU129      0.1567
     60  C        106.8280   38.4670    6.2480 C.2   129  GLU129      0.2260
     61  O        105.8160   37.7650    6.2200 O.2   129  GLU129     -0.2867
     62  CB       108.5970   36.7080    6.2490 C.3   129  GLU129      0.0388
     63  CG       108.8470   36.8600    7.7350 C.3   129  GLU129      0.1160
     64  CD       110.2880   37.2090    8.0550 C.2   129  GLU129      0.3649
     65  OE1      110.8980   38.0000    7.3080 O.co2 129  GLU129     -0.2457
     66  OE2      110.8070   36.6980    9.0650 O.co2 129  GLU129     -0.2457
     67  N        115.7040   36.1160   18.3850 N.3   211  SER211     -0.1202
     68  CA       115.9740   34.9420   17.5600 C.3   211  SER211      0.2020
     69  C        117.3810   34.4650   17.9030 C.2   211  SER211      0.2619
     70  O        117.9370   34.8570   18.9290 O.2   211  SER211     -0.2717
     71  CB       115.8870   35.3080   16.0760 C.3   211  SER211      0.2103
     72  OG       116.9250   36.2020   15.7080 O.3   211  SER211     -0.2182
     73  N        117.9620   33.6220   17.0620 N.am  212  LEU212     -0.1965
     74  CA       119.3150   33.1420   17.3280 C.3   212  LEU212      0.1728
     75  C        120.3020   34.3000   17.1620 C.2   212  LEU212      0.2617
     76  O        121.2100   34.4800   17.9710 O.2   212  LEU212     -0.2715
     77  CB       119.6730   31.9860   16.3810 C.3   212  LEU212      0.0311
     78  CG       121.0600   31.3430   16.5610 C.3   212  LEU212      0.0022
     79  CD1      121.0710   29.9450   15.9550 C.3   212  LEU212      0.0001
     80  CD2      122.1310   32.2140   15.9100 C.3   212  LEU212      0.0001
     81  N        120.1070   35.0930   16.1160 N.am  213  GLY213     -0.1940
     82  CA       120.9920   36.2150   15.8720 C.3   213  GLY213      0.2014
     83  C        120.4630   37.5480   16.3620 C.2   213  GLY213      0.2639
     84  O        121.2360   38.4900   16.5610 O.2   213  GLY213     -0.2714
     85  N        119.1510   37.6360   16.5610 N.am  214  GLY214     -0.1954
     86  CA       118.5580   38.8820   17.0190 C.3   214  GLY214      0.1869
     87  C        118.1960   38.8870   18.4930 C.2   214  GLY214      0.2309
     88  O        117.2750   38.1910   18.9230 O.2   214  GLY214     -0.2863
@<TRIPOS>BOND
     1    59    58    1
     2    59    60    1
     3    59    62    1
     4    61    60    2
     5    62    63    1
     6    65    64   ar
     7    52    53    2
     8    52    51    1
     9    63    64    1
    10    64    66   ar
    11    51    50    1
    12    51    54    1
    13    49    48    1
    14    54    55    1
    15    48    46   ar
    16    48    47   ar
    17    46    44   ar
    18    55    57   am
    19    55    56    2
    20    47    45   ar
    21    44    43   ar
    22    40    41    2
    23    40    39    1
    24    45    43   ar
    25    43    42    1
    26     8     6   ar
    27    39    42    1
    28    39    38    1
    29    29    27    1
    30     6     7   ar
    31     6     5    1
    32    35    36    1
    33    35    34    1
    34    37    36    2
    35    27    26    1
    36    34    32   am
    37    28    26    1
    38     5     2    1
    39    20    19   ar
    40    26    23    1
    41    72    71    1
    42    82    81    1
    43    82    83    1
    44    80    78    1
    45    79    78    1
    46    32    31    1
    47    32    33    2
    48    71    68    1
    49    81    75   am
    50     2     1    1
    51     2     3    1
    52    19    21   ar
    53    19    18    1
    54    83    84    2
    55    83    85   am
    56    77    78    1
    57    77    74    1
    58    31    30    1
    59    85    86    1
    60    13    10    1
    61    23    24    1
    62    23    22    1
    63    86    87    1
    64    25    24    2
    65    73    74    1
    66    73    69   am
    67    75    74    1
    68    75    76    2
    69     3     4    2
    70    17    16    2
    71    18    15    1
    72    68    69    1
    73    68    67    1
    74    10     9    1
    75    10    11    1
    76    15    16    1
    77    15    14    1
    78    69    70    2
    79    87    88    2
    80    14    11   am
    81    11    12    2
