@<TRIPOS>MOLECULE
tmp/2dvbD00.pdb
 88 81 0 0 0
SMALL
GASTEIGER

@<TRIPOS>ATOM
      1  N         74.3680   79.1030   40.1520 N.3    80  ASP80      -0.1239
      2  CA        74.3530   77.8610   39.4040 C.3    80  ASP80       0.1674
      3  C         75.7910   77.5800   38.9880 C.2    80  ASP80       0.2266
      4  O         76.4920   78.4760   38.5200 O.2    80  ASP80      -0.2867
      5  CB        73.4640   77.9890   38.1650 C.3    80  ASP80       0.1410
      6  CG        72.0100   78.2320   38.5150 C.2    80  ASP80       0.3668
      7  OD1       71.4820   77.5100   39.3860 O.co2  80  ASP80      -0.2456
      8  OD2       71.3900   79.1360   37.9200 O.co2  80  ASP80      -0.2456
      9  N         78.1340   77.2010   36.7790 N.3    82  ALA82      -0.1231
     10  CA        78.3270   77.4010   35.3500 C.3    82  ALA82       0.1694
     11  C         79.5770   78.2680   35.1290 C.2    82  ALA82       0.2592
     12  O         80.0650   78.8860   36.0710 O.2    82  ALA82      -0.2718
     13  CB        77.0860   78.0820   34.7630 C.3    82  ALA82       0.0304
     14  N         80.0940   78.3270   33.9020 N.am   83  ASP83      -0.1974
     15  CA        79.5480   77.6260   32.7410 C.3    83  ASP83       0.1709
     16  C         80.4220   76.4800   32.2430 C.2    83  ASP83       0.2293
     17  O         79.9650   75.6320   31.4840 O.2    83  ASP83      -0.2864
     18  CB        79.3240   78.6200   31.6030 C.3    83  ASP83       0.1436
     19  CG        78.0030   79.3420   31.7200 C.2    83  ASP83       0.3671
     20  OD1       76.9790   78.7630   31.2950 O.co2  83  ASP83      -0.2456
     21  OD2       77.9870   80.4750   32.2470 O.co2  83  ASP83      -0.2456
     22  N         79.3720   87.9710   26.2600 N.3   101  ILE101     -0.1245
     23  CA        78.3370   87.8490   27.2730 C.3   101  ILE101      0.1561
     24  C         78.6810   86.6820   28.1930 C.2   101  ILE101      0.2260
     25  O         77.8850   86.2980   29.0520 O.2   101  ILE101     -0.2867
     26  CB        76.9560   87.5850   26.6450 C.3   101  ILE101      0.0252
     27  CG1       76.9710   86.2530   25.8950 C.3   101  ILE101      0.0019
     28  CG2       76.5900   88.7200   25.7110 C.3   101  ILE101      0.0019
     29  CD1       75.5910   85.7520   25.5050 C.3   101  ILE101      0.0001
     30  N         78.9010   83.3840   29.9160 N.3   103  GLY103     -0.1210
     31  CA        77.9270   82.3130   29.9710 C.3   103  GLY103      0.1956
     32  C         78.2580   81.0920   29.1380 C.2   103  GLY103      0.2612
     33  O         79.3460   80.5220   29.2510 O.2   103  GLY103     -0.2717
     34  N         77.3090   80.6960   28.2940 N.am  104  GLY104     -0.1956
     35  CA        77.4820   79.5210   27.4590 C.3   104  GLY104      0.1869
     36  C         78.4200   79.6300   26.2720 C.2   104  GLY104      0.2309
     37  O         78.6900   78.6310   25.6070 O.2   104  GLY104     -0.2863
     38  N         76.5800   73.3570   32.1310 N.3   125  TYR125     -0.1241
     39  CA        75.2460   73.9490   32.1110 C.3   125  TYR125      0.1605
     40  C         74.6160   73.7110   30.7480 C.2   125  TYR125      0.2264
     41  O         75.2730   73.8660   29.7250 O.2   125  TYR125     -0.2867
     42  CB        75.3160   75.4520   32.4080 C.3   125  TYR125      0.0534
     43  CG        73.9560   76.1120   32.4430 C.ar  125  TYR125     -0.0201
     44  CD1       73.3170   76.5000   31.2670 C.ar  125  TYR125     -0.0009
     45  CD2       73.2760   76.2850   33.6500 C.ar  125  TYR125     -0.0009
     46  CE1       72.0350   77.0370   31.2870 C.ar  125  TYR125      0.0417
     47  CE2       71.9940   76.8210   33.6820 C.ar  125  TYR125      0.0417
     48  CZ        71.3780   77.1910   32.4970 C.ar  125  TYR125      0.1957
     49  OH        70.0950   77.6900   32.5170 O.3   125  TYR125     -0.2866
     50  N         72.7310   74.7860   27.7670 N.3   127  ASN127     -0.1240
     51  CA        72.2410   75.9280   27.0100 C.3   127  ASN127      0.1653
     52  C         71.4940   75.3730   25.8010 C.2   127  ASN127      0.2266
     53  O         72.1090   74.7580   24.9280 O.2   127  ASN127     -0.2867
     54  CB        73.4040   76.8030   26.5260 C.3   127  ASN127      0.1155
     55  CG        74.1150   77.5100   27.6610 C.2   127  ASN127      0.2627
     56  OD1       74.7700   76.8810   28.4740 O.2   127  ASN127     -0.2716
     57  ND2       73.9660   78.8270   27.7300 N.am  127  ASN127     -0.0877
     58  N         70.0200   77.1360   23.4870 N.3   129  GLU129     -0.1245
     59  CA        70.2930   77.9760   22.3250 C.3   129  GLU129      0.1567
     60  C         71.5100   77.4820   21.5500 C.2   129  GLU129      0.2260
     61  O         71.6980   77.8360   20.3840 O.2   129  GLU129     -0.2867
     62  CB        70.5210   79.4360   22.7420 C.3   129  GLU129      0.0388
     63  CG        71.7620   79.6530   23.5950 C.3   129  GLU129      0.1160
     64  CD        71.4810   79.5340   25.0790 C.2   129  GLU129      0.3649
     65  OE1       70.5890   78.7450   25.4550 O.co2 129  GLU129     -0.2457
     66  OE2       72.1580   80.2200   25.8690 O.co2 129  GLU129     -0.2457
     67  N         77.9380   83.9760   34.0610 N.3   211  SER211     -0.1202
     68  CA        76.9290   84.9710   33.7390 C.3   211  SER211      0.2020
     69  C         76.5050   85.7010   35.0010 C.2   211  SER211      0.2619
     70  O         77.2840   85.8200   35.9530 O.2   211  SER211     -0.2717
     71  CB        75.7190   84.2900   33.1110 C.3   211  SER211      0.2103
     72  OG        75.2100   83.2940   33.9810 O.3   211  SER211     -0.2182
     73  N         75.2630   86.1800   34.9940 N.am  212  LEU212     -0.1965
     74  CA        74.6830   86.8920   36.1250 C.3   212  LEU212      0.1728
     75  C         74.5300   85.9110   37.2850 C.2   212  LEU212      0.2617
     76  O         75.0560   86.1340   38.3780 O.2   212  LEU212     -0.2715
     77  CB        73.3060   87.4420   35.7370 C.3   212  LEU212      0.0311
     78  CG        72.6460   88.5400   36.5760 C.3   212  LEU212      0.0022
     79  CD1       71.1910   88.6720   36.1450 C.3   212  LEU212      0.0001
     80  CD2       72.7140   88.2150   38.0520 C.3   212  LEU212      0.0001
     81  N         73.8020   84.8240   37.0330 N.am  213  GLY213     -0.1940
     82  CA        73.5740   83.8200   38.0570 C.3   213  GLY213      0.2014
     83  C         74.4460   82.5810   37.9300 C.2   213  GLY213      0.2639
     84  O         74.5310   81.7780   38.8590 O.2   213  GLY213     -0.2714
     85  N         75.0940   82.4190   36.7820 N.am  214  GLY214     -0.1954
     86  CA        75.9460   81.2640   36.5880 C.3   214  GLY214      0.1869
     87  C         77.3920   81.5370   36.9610 C.2   214  GLY214      0.2309
     88  O         78.0960   82.2620   36.2540 O.2   214  GLY214     -0.2863
@<TRIPOS>BOND
     1    61    60    2
     2    60    59    1
     3    59    62    1
     4    59    58    1
     5    62    63    1
     6    63    64    1
     7    53    52    2
     8    64    65   ar
     9    64    66   ar
    10    29    27    1
    11    37    36    2
    12    28    26    1
    13    52    51    1
    14    27    26    1
    15    22    23    1
    16    36    35    1
    17    54    51    1
    18    54    55    1
    19    26    23    1
    20    51    50    1
    21    23    24    1
    22    35    34    1
    23    55    57   am
    24    55    56    2
    25    24    25    2
    26    34    32   am
    27    32    33    2
    28    32    31    1
    29    41    40    2
    30    30    31    1
    31    40    39    1
    32    44    46   ar
    33    44    43   ar
    34    46    48   ar
    35    20    19   ar
    36    17    16    2
    37    18    19    1
    38    18    15    1
    39    19    21   ar
    40    39    38    1
    41    39    42    1
    42    16    15    1
    43    42    43    1
    44    43    45   ar
    45    48    49    1
    46    48    47   ar
    47    15    14    1
    48    71    68    1
    49    71    72    1
    50    45    47   ar
    51    68    67    1
    52    68    69    1
    53    14    11   am
    54    13    10    1
    55    73    69   am
    56    73    74    1
    57    69    70    2
    58    11    10    1
    59    11    12    2
    60    10     9    1
    61    77    74    1
    62    77    78    1
    63    74    75    1
    64    79    78    1
    65    88    87    2
    66    78    80    1
    67    86    85    1
    68    86    87    1
    69    85    83   am
    70    81    75   am
    71    81    82    1
    72    75    76    2
    73     8     6   ar
    74    83    82    1
    75    83    84    2
    76     5     6    1
    77     5     2    1
    78     6     7   ar
    79     4     3    2
    80     3     2    1
    81     2     1    1
