@<TRIPOS>MOLECULE
tmp/2dvcA03.pdb
 72 69 0 0 0
SMALL
GASTEIGER

@<TRIPOS>ATOM
      1  N         18.2680   16.1250   10.8750 N.3    89  THR89      -0.1218
      2  CA        17.8640   14.7350   10.6920 C.3    89  THR89       0.1862
      3  C         16.4510   14.6940   10.0970 C.2    89  THR89       0.2287
      4  O         15.6130   15.5480   10.4010 O.2    89  THR89      -0.2866
      5  CB        17.8630   13.9710   12.0300 C.3    89  THR89       0.1770
      6  OG1       16.9370   14.5850   12.9340 O.3    89  THR89      -0.2211
      7  CG2       19.2470   13.9790   12.6440 C.3    89  THR89       0.0375
      8  N         21.6200   20.6710   17.6010 N.3   311  GLY311     -0.1210
      9  CA        21.1110   22.0140   17.4010 C.3   311  GLY311      0.1956
     10  C         19.8160   22.2240   18.1670 C.2   311  GLY311      0.2612
     11  O         18.8000   21.5670   17.9120 O.2   311  GLY311     -0.2717
     12  N         19.8690   23.1580   19.1140 N.am  312  GLY312     -0.1956
     13  CA        18.7240   23.4650   19.9480 C.3   312  GLY312      0.1869
     14  C         18.8550   22.6760   21.2290 C.2   312  GLY312      0.2309
     15  O         17.8970   22.5860   21.9970 O.2   312  GLY312     -0.2863
     16  N         18.4050   19.8710   22.4560 N.3   314  PRO314     -0.2116
     17  CA        17.1460   19.2370   22.8220 C.3   314  PRO314      0.1372
     18  C         17.2000   18.2210   23.9330 C.2   314  PRO314      0.2244
     19  O         18.1620   17.4670   24.0550 O.2   314  PRO314     -0.2868
     20  CB        16.7030   18.6100   21.5140 C.3   314  PRO314      0.0268
     21  CG        18.0010   18.1760   20.9380 C.3   314  PRO314      0.0207
     22  CD        18.8470   19.3940   21.1330 C.3   314  PRO314      0.0892
     23  N         12.7430   14.5670   25.3420 N.3   317  GLU317     -0.1231
     24  CA        11.3590   14.7650   24.9260 C.3   317  GLU317      0.1699
     25  C         11.2950   15.6130   23.6690 C.2   317  GLU317      0.2592
     26  O         10.4980   15.3680   22.7730 O.2   317  GLU317     -0.2718
     27  CB        10.5600   15.4320   26.0410 C.3   317  GLU317      0.0402
     28  CG        10.3120   14.5250   27.2250 C.3   317  GLU317      0.1161
     29  CD         9.6340   15.2410   28.3780 C.2   317  GLU317      0.3649
     30  OE1       10.3050   16.0610   29.0500 O.co2 317  GLU317     -0.2457
     31  OE2        8.4280   14.9860   28.6050 O.co2 317  GLU317     -0.2457
     32  N         12.1520   16.6140   23.5980 N.am  318  GLU318     -0.1966
     33  CA        12.1600   17.4680   22.4350 C.3   318  GLU318      0.1733
     34  C         12.7280   16.7450   21.2390 C.2   318  GLU318      0.2616
     35  O         12.3680   17.0320   20.1000 O.2   318  GLU318     -0.2715
     36  CB        12.9920   18.6910   22.7040 C.3   318  GLU318      0.0429
     37  CG        12.3820   19.5920   23.7070 C.3   318  GLU318      0.1163
     38  CD        13.2470   20.7780   23.9520 C.2   318  GLU318      0.3649
     39  OE1       14.3940   20.5670   24.4000 O.co2 318  GLU318     -0.2457
     40  OE2       12.7840   21.9080   23.6880 O.co2 318  GLU318     -0.2457
     41  N         13.6270   15.8060   21.4930 N.am  319  TYR319     -0.1974
     42  CA        14.2270   15.0610   20.4060 C.3   319  TYR319      0.1639
     43  C         13.2660   14.0400   19.8100 C.2   319  TYR319      0.2290
     44  O         13.2290   13.8610   18.5980 O.2   319  TYR319     -0.2864
     45  CB        15.4840   14.3480   20.8760 C.3   319  TYR319      0.0560
     46  CG        16.1050   13.5360   19.7830 C.ar  319  TYR319     -0.0198
     47  CD1       16.8710   14.1430   18.7960 C.ar  319  TYR319     -0.0009
     48  CD2       15.8910   12.1640   19.7060 C.ar  319  TYR319     -0.0009
     49  CE1       17.4110   13.4070   17.7570 C.ar  319  TYR319      0.0417
     50  CE2       16.4230   11.4220   18.6710 C.ar  319  TYR319      0.0417
     51  CZ        17.1830   12.0480   17.7010 C.ar  319  TYR319      0.1957
     52  OH        17.7230   11.3180   16.6740 O.3   319  TYR319     -0.2866
     53  N          9.9890   14.2020   20.1600 N.3   321  GLY321     -0.1210
     54  CA         8.8150   14.9230   19.7200 C.3   321  GLY321      0.1956
     55  C          7.6060   14.6020   20.5730 C.2   321  GLY321      0.2613
     56  O          7.5130   13.5070   21.1260 O.2   321  GLY321     -0.2717
     57  N          6.6800   15.5530   20.6760 N.am  322  THR322     -0.1938
     58  CA         5.4660   15.3760   21.4740 C.3   322  THR322      0.2028
     59  C          4.5730   14.2830   20.8970 C.2   322  THR322      0.2642
     60  O          3.9650   13.5100   21.6390 O.2   322  THR322     -0.2714
     61  CB         4.6320   16.6840   21.5560 C.3   322  THR322      0.1808
     62  OG1        5.4460   17.7460   22.0690 O.3   322  THR322     -0.2208
     63  CG2        3.4290   16.4950   22.4870 C.3   322  THR322      0.0379
     64  N          4.4910   14.2280   19.5720 N.am  323  GLU323     -0.1976
     65  CA         3.6720   13.2220   18.9050 C.3   323  GLU323      0.1602
     66  C          4.0220   11.8180   19.3920 C.2   323  GLU323      0.2287
     67  O          3.1840   11.1220   19.9680 O.2   323  GLU323     -0.2864
     68  CB         3.8630   13.2990   17.3830 C.3   323  GLU323      0.0415
     69  CG         4.8760   14.3510   16.9040 C.3   323  GLU323      0.1163
     70  CD         6.3390   13.8830   16.9310 C.2   323  GLU323      0.3649
     71  OE1        7.2120   14.6910   16.5380 O.co2 323  GLU323     -0.2457
     72  OE2        6.6220   12.7270   17.3300 O.co2 323  GLU323     -0.2457
@<TRIPOS>BOND
     1     3     4    2
     2     3     2    1
     3     2     1    1
     4     2     5    1
     5     5     7    1
     6     5     6    1
     7    71    70   ar
     8    52    51    1
     9    69    70    1
    10    69    68    1
    11    70    72   ar
    12    68    65    1
    13     9     8    1
    14     9    10    1
    15    51    49   ar
    16    51    50   ar
    17    49    47   ar
    18    11    10    2
    19    10    12   am
    20    44    43    2
    21    50    48   ar
    22    47    46   ar
    23    65    66    1
    24    65    64    1
    25    12    13    1
    26    66    67    2
    27    64    59   am
    28    48    46   ar
    29    54    53    1
    30    54    55    1
    31    46    45    1
    32    43    42    1
    33    13    14    1
    34    35    34    2
    35    42    45    1
    36    42    41    1
    37    55    57   am
    38    55    56    2
    39    57    58    1
    40    59    58    1
    41    59    60    2
    42    21    22    1
    43    21    20    1
    44    22    16    1
    45    14    15    2
    46    34    41   am
    47    34    33    1
    48    58    61    1
    49    20    17    1
    50    61    62    1
    51    61    63    1
    52    33    36    1
    53    33    32    1
    54    16    17    1
    55    36    37    1
    56    26    25    2
    57    17    18    1
    58    32    25   am
    59    25    24    1
    60    40    38   ar
    61    37    38    1
    62    18    19    2
    63    38    39   ar
    64    24    23    1
    65    24    27    1
    66    27    28    1
    67    28    29    1
    68    29    31   ar
    69    29    30   ar
