@<TRIPOS>MOLECULE
tmp/2dvcA02.pdb
 141 133 0 0 0
SMALL
GASTEIGER

@<TRIPOS>ATOM
      1  N         21.4430    9.7760    7.6290 N.3    74  ARG74      -0.1231
      2  CA        21.6420    9.0310    6.3950 C.3    74  ARG74       0.1694
      3  C         21.6320    9.9930    5.2140 C.2    74  ARG74       0.2592
      4  O         21.0990   11.1020    5.3080 O.2    74  ARG74      -0.2718
      5  CB        20.5530    7.9730    6.2130 C.3    74  ARG74       0.0321
      6  CG        19.1610    8.5250    5.9990 C.3    74  ARG74       0.0489
      7  CD        18.1930    7.4100    5.6290 C.3    74  ARG74       0.2205
      8  NE        16.8570    7.9150    5.3270 N.pl3  74  ARG74      -0.0865
      9  CZ        16.0790    8.5380    6.2070 C.cat  74  ARG74       0.5346
     10  NH1       16.5020    8.7360    7.4520 N.pl3  74  ARG74       0.1354
     11  NH2       14.8770    8.9670    5.8400 N.pl3  74  ARG74       0.1354
     12  N         22.2250    9.5700    4.1030 N.am   75  LYS75      -0.1966
     13  CA        22.2820   10.4140    2.9150 C.3    75  LYS75       0.1728
     14  C         20.8930   10.7560    2.3830 C.2    75  LYS75       0.2617
     15  O         20.0890    9.8640    2.1120 O.2    75  LYS75      -0.2715
     16  CB        23.0920    9.7290    1.8140 C.3    75  LYS75       0.0311
     17  CG        22.6300    8.3280    1.4640 C.3    75  LYS75       0.0038
     18  CD        23.2420    7.8930    0.1430 C.3    75  LYS75       0.0206
     19  CE        23.1660    6.3880   -0.0390 C.3    75  LYS75       0.1093
     20  NZ        23.7610    5.9530   -1.3330 N.3    75  LYS75      -0.1314
     21  N         20.6180   12.0490    2.2350 N.am   76  SER76      -0.1936
     22  CA        19.3280   12.5010    1.7240 C.3    76  SER76       0.2055
     23  C         19.5330   13.3730    0.4930 C.2    76  SER76       0.2643
     24  O         20.6430   13.8410    0.2320 O.2    76  SER76      -0.2714
     25  CB        18.5870   13.3050    2.7860 C.3    76  SER76       0.2130
     26  OG        19.2840   14.5040    3.0680 O.3    76  SER76      -0.2179
     27  N         18.4590   13.5930   -0.2580 N.am   77  SER77      -0.1949
     28  CA        18.5240   14.4140   -1.4640 C.3    77  SER77       0.1924
     29  C         18.3620   15.9090   -1.1600 C.2    77  SER77       0.2314
     30  O         19.1110   16.7350   -1.6820 O.2    77  SER77      -0.2863
     31  CB        17.4590   13.9570   -2.4670 C.3    77  SER77       0.2116
     32  OG        16.1890   13.8340   -1.8480 O.3    77  SER77      -0.2180
     33  N         21.1480   19.3700    0.5500 N.3    80  SER80      -0.1217
     34  CA        22.4390   18.9170    0.0460 C.3    80  SER80       0.1889
     35  C         23.5340   19.9640    0.2260 C.2    80  SER80       0.2288
     36  O         24.7240   19.6420    0.2020 O.2    80  SER80      -0.2866
     37  CB        22.3120   18.5390   -1.4390 C.3    80  SER80       0.2089
     38  OG        21.7060   19.5730   -2.2010 O.3    80  SER80      -0.2183
     39  N         10.9750    6.0220    8.0050 N.3    93  LEU93      -0.1245
     40  CA         9.5860    5.6210    7.8730 C.3    93  LEU93       0.1561
     41  C          9.2680    4.2300    8.3990 C.2    93  LEU93       0.2260
     42  O          9.8230    3.2310    7.9320 O.2    93  LEU93      -0.2867
     43  CB         9.1700    5.6820    6.4080 C.3    93  LEU93       0.0270
     44  CG         9.2270    6.9980    5.6440 C.3    93  LEU93       0.0019
     45  CD1        8.7040    6.7290    4.2610 C.3    93  LEU93       0.0001
     46  CD2        8.3900    8.0670    6.3070 C.3    93  LEU93       0.0001
     47  N         11.3140    1.5860    6.1190 N.3   204  ASN204     -0.1225
     48  CA        11.4500    1.6790    4.6700 C.3   204  ASN204      0.1785
     49  C         12.7640    1.1240    4.1570 C.2   204  ASN204      0.2597
     50  O         12.7860    0.1560    3.4050 O.2   204  ASN204     -0.2718
     51  CB        11.3240    3.1270    4.1800 C.3   204  ASN204      0.1169
     52  CG        11.7980    3.2850    2.7360 C.2   204  ASN204      0.2627
     53  OD1       11.3370    2.6040    1.8560 O.2   204  ASN204     -0.2716
     54  ND2       12.7550    4.1700    2.5150 N.am  204  ASN204     -0.0877
     55  N         13.8620    1.7370    4.5740 N.am  205  ASP205     -0.1974
     56  CA        15.1860    1.3320    4.1280 C.3   205  ASP205      0.1709
     57  C         15.5090   -0.1580    4.2300 C.2   205  ASP205      0.2293
     58  O         16.2660   -0.6810    3.4210 O.2   205  ASP205     -0.2864
     59  CB        16.2530    2.1090    4.8960 C.3   205  ASP205      0.1436
     60  CG        15.8790    3.5530    5.1190 C.2   205  ASP205      0.3671
     61  OD1       14.9400    3.8060    5.8960 O.co2 205  ASP205     -0.2456
     62  OD2       16.5170    4.4410    4.5180 O.co2 205  ASP205     -0.2456
     63  N         14.7500   -2.0420    0.9400 N.3   208  TRP208     -0.1227
     64  CA        15.6360   -1.7280   -0.1740 C.3   208  TRP208      0.1737
     65  C         17.0170   -2.3360    0.0060 C.2   208  TRP208      0.2595
     66  O         17.5890   -2.8910   -0.9320 O.2   208  TRP208     -0.2718
     67  CB        15.7840   -0.2180   -0.3430 C.3   208  TRP208      0.0564
     68  CG        14.5360    0.4190   -0.7970 C.ar  208  TRP208      0.0003
     69  CD1       13.4110    0.6280   -0.0570 C.ar  208  TRP208      0.0946
     70  CD2       14.2320    0.8560   -2.1280 C.ar  208  TRP208      0.0152
     71  NE1       12.4180    1.1630   -0.8440 N.ar  208  TRP208     -0.2442
     72  CE2       12.8940    1.3130   -2.1190 C.ar  208  TRP208      0.0810
     73  CE3       14.9590    0.9040   -3.3260 C.ar  208  TRP208      0.0012
     74  CZ2       12.2650    1.8120   -3.2660 C.ar  208  TRP208      0.0191
     75  CZ3       14.3340    1.4020   -4.4650 C.ar  208  TRP208      0.0001
     76  CH2       12.9980    1.8500   -4.4240 C.ar  208  TRP208      0.0015
     77  N         17.5460   -2.2310    1.2190 N.am  209  GLU209     -0.1979
     78  CA        18.8760   -2.7350    1.5400 C.3   209  GLU209      0.1602
     79  C         19.0530   -4.2410    1.4900 C.2   209  GLU209      0.2287
     80  O         20.1820   -4.7210    1.4560 O.2   209  GLU209     -0.2864
     81  CB        19.3010   -2.2190    2.9200 C.3   209  GLU209      0.0415
     82  CG        19.7840   -0.7640    2.9180 C.3   209  GLU209      0.1163
     83  CD        19.9180   -0.1650    4.3140 C.2   209  GLU209      0.3649
     84  OE1       20.4160   -0.8520    5.2300 O.co2 209  GLU209     -0.2457
     85  OE2       19.5340    1.0090    4.4900 O.co2 209  GLU209     -0.2457
     86  N         21.3660   -6.3050   -3.1460 N.3   214  GLU214     -0.1245
     87  CA        22.0090   -5.3500   -2.2550 C.3   214  GLU214      0.1567
     88  C         22.6380   -6.0180   -1.0300 C.2   214  GLU214      0.2260
     89  O         23.4920   -5.4310   -0.3720 O.2   214  GLU214     -0.2867
     90  CB        20.9850   -4.3140   -1.7830 C.3   214  GLU214      0.0388
     91  CG        20.5840   -3.2980   -2.8350 C.3   214  GLU214      0.1160
     92  CD        21.6650   -2.2690   -3.0760 C.2   214  GLU214      0.3649
     93  OE1       21.9930   -1.5280   -2.1260 O.co2 214  GLU214     -0.2457
     94  OE2       22.1880   -2.2030   -4.2080 O.co2 214  GLU214     -0.2457
     95  N         12.3500   -6.9140   -4.7690 N.3   225  ARG225     -0.1245
     96  CA        11.4380   -5.9250   -4.2180 C.3   225  ARG225      0.1563
     97  C         10.0030   -6.1110   -4.6900 C.2   225  ARG225      0.2260
     98  O          9.0520   -5.8970   -3.9370 O.2   225  ARG225     -0.2867
     99  CB        11.9200   -4.5220   -4.5890 C.3   225  ARG225      0.0307
    100  CG        13.2710   -4.2020   -4.0030 C.3   225  ARG225      0.0489
    101  CD        13.9180   -2.9640   -4.5970 C.3   225  ARG225      0.2205
    102  NE        15.2610   -2.7900   -4.0510 N.pl3 225  ARG225     -0.0865
    103  CZ        16.2200   -2.0780   -4.6270 C.cat 225  ARG225      0.5346
    104  NH1       15.9950   -1.4620   -5.7760 N.pl3 225  ARG225      0.1354
    105  NH2       17.4140   -1.9940   -4.0610 N.pl3 225  ARG225      0.1354
    106  N          6.7590   -1.1690   -2.5800 N.3   240  VAL240     -0.1231
    107  CA         7.6880   -0.5780   -1.6260 C.3   240  VAL240      0.1692
    108  C          8.1840    0.7690   -2.1290 C.2   240  VAL240      0.2592
    109  O          8.8870    1.4870   -1.4200 O.2   240  VAL240     -0.2718
    110  CB         8.9060   -1.4950   -1.3660 C.3   240  VAL240      0.0266
    111  CG1        8.4300   -2.8500   -0.9240 C.3   240  VAL240      0.0020
    112  CG2        9.7610   -1.6160   -2.6140 C.3   240  VAL240      0.0020
    113  N          7.8140    1.1190   -3.3530 N.am  241  THR241     -0.1953
    114  CA         8.2490    2.3870   -3.9140 C.3   241  THR241      0.1897
    115  C          7.3610    3.5610   -3.4960 C.2   241  THR241      0.2313
    116  O          7.6800    4.7150   -3.7810 O.2   241  THR241     -0.2863
    117  CB         8.3050    2.3100   -5.4530 C.3   241  THR241      0.1794
    118  OG1        7.0550    1.8230   -5.9620 O.3   241  THR241     -0.2208
    119  CG2        9.4220    1.3850   -5.8900 C.3   241  THR241      0.0378
    120  N          6.4530    4.3220   -0.2400 N.3   243  ALA243     -0.1231
    121  CA         6.5320    4.4410    1.2090 C.3   243  ALA243      0.1694
    122  C          6.1660    5.8190    1.7470 C.2   243  ALA243      0.2591
    123  O          5.6750    5.9380    2.8710 O.2   243  ALA243     -0.2718
    124  CB         7.9210    4.0550    1.6780 C.3   243  ALA243      0.0304
    125  N          6.3960    6.8590    0.9510 N.am  244  GLN244     -0.1979
    126  CA         6.1010    8.2150    1.3910 C.3   244  GLN244      0.1601
    127  C          4.5970    8.4430    1.5150 C.2   244  GLN244      0.2287
    128  O          4.1580    9.4050    2.1360 O.2   244  GLN244     -0.2864
    129  CB         6.7260    9.2270    0.4210 C.3   244  GLN244      0.0394
    130  CG         6.8260   10.6790    0.9370 C.3   244  GLN244      0.0908
    131  CD         7.6810   10.8390    2.2130 C.2   244  GLN244      0.2608
    132  OE1        7.1550   10.9570    3.3360 O.2   244  GLN244     -0.2717
    133  NE2        9.0040   10.8400    2.0410 N.am  244  GLN244     -0.0878
    134  N         23.6490    2.1560    7.1040 N.3   303  ASN303     -0.1240
    135  CA        23.3810    3.2490    6.1710 C.3   303  ASN303      0.1653
    136  C         23.6770    4.6310    6.7410 C.2   303  ASN303      0.2266
    137  O         23.2750    5.6380    6.1690 O.2   303  ASN303     -0.2867
    138  CB        21.9270    3.2050    5.6670 C.3   303  ASN303      0.1155
    139  CG        20.9060    3.5010    6.7530 C.2   303  ASN303      0.2627
    140  OD1       21.2350    4.0000    7.8220 O.2   303  ASN303     -0.2716
    141  ND2       19.6510    3.2060    6.4660 N.am  303  ASN303     -0.0877
@<TRIPOS>BOND
     1   118   117    1
     2   119   117    1
     3   104   103    1
     4   117   114    1
     5    95    96    1
     6    97    96    1
     7    97    98    2
     8   103   105    1
     9   103   102    2
    10   101   102    1
    11   101   100    1
    12    99    96    1
    13    99   100    1
    14    75    76   ar
    15    75    73   ar
    16    76    74   ar
    17    94    92   ar
    18   114   115    1
    19   114   113    1
    20   116   115    2
    21   113   108   am
    22    73    70   ar
    23    74    72   ar
    24    86    87    1
    25    92    91    1
    26    92    93   ar
    27    91    90    1
    28   112   110    1
    29   106   107    1
    30    31    32    1
    31    31    28    1
    32    87    90    1
    33    87    88    1
    34    38    37    1
    35   108   107    1
    36   108   109    2
    37    70    72   ar
    38    70    68   ar
    39    72    71   ar
    40    30    29    2
    41   107   110    1
    42    28    29    1
    43    28    27    1
    44    37    34    1
    45   110   111    1
    46    20    19    1
    47    88    89    2
    48    66    65    2
    49    71    69   ar
    50    68    67    1
    51    68    69   ar
    52    67    64    1
    53    27    23   am
    54   120   121    1
    55    64    65    1
    56    64    63    1
    57    19    18    1
    58    65    77   am
    59    34    35    1
    60    34    33    1
    61    18    17    1
    62    36    35    2
    63    24    23    2
    64   129   130    1
    65   129   126    1
    66    23    22    1
    67   130   131    1
    68   125   126    1
    69   125   122   am
    70   121   124    1
    71   121   122    1
    72    77    78    1
    73   126   127    1
    74    80    79    2
    75    17    16    1
    76    79    78    1
    77   127   128    2
    78    78    81    1
    79    22    21    1
    80    22    25    1
    81   122   123    2
    82    16    13    1
    83    53    52    2
    84   133   131   am
    85    15    14    2
    86   131   132    2
    87    21    14   am
    88    14    13    1
    89    54    52   am
    90    52    51    1
    91    25    26    1
    92    13    12    1
    93    82    81    1
    94    82    83    1
    95    50    49    2
    96    58    57    2
    97    12     3   am
    98    56    57    1
    99    56    55    1
   100    56    59    1
   101    49    55   am
   102    49    48    1
   103    51    48    1
   104    45    44    1
   105    83    85   ar
   106    83    84   ar
   107    62    60   ar
   108    48    47    1
   109    59    60    1
   110    60    61   ar
   111     3     4    2
   112     3     2    1
   113     8     7    1
   114     8     9    2
   115     7     6    1
   116    44    46    1
   117    44    43    1
   118   138   135    1
   119   138   139    1
   120    11     9    1
   121     6     5    1
   122   137   136    2
   123   135   136    1
   124   135   134    1
   125     9    10    1
   126     5     2    1
   127     2     1    1
   128    43    40    1
   129   141   139   am
   130   139   140    2
   131    40    39    1
   132    40    41    1
   133    42    41    2
