@<TRIPOS>MOLECULE
tmp/2dvcA00.pdb
 72 66 0 0 0
SMALL
GASTEIGER

@<TRIPOS>ATOM
      1  N          6.5650   -0.1370   19.2500 N.3   127  ASN127     -0.1225
      2  CA         5.7470    0.9620   19.7410 C.3   127  ASN127      0.1785
      3  C          4.7160    1.4820   18.7550 C.2   127  ASN127      0.2597
      4  O          3.5460    1.6370   19.1070 O.2   127  ASN127     -0.2718
      5  CB         6.6310    2.1080   20.2210 C.3   127  ASN127      0.1169
      6  CG         7.5070    1.6990   21.3750 C.2   127  ASN127      0.2627
      7  OD1        7.2190    0.7080   22.0480 O.2   127  ASN127     -0.2716
      8  ND2        8.5790    2.4550   21.6230 N.am  127  ASN127     -0.0877
      9  N          5.1350    1.7480   17.5230 N.am  128  ILE128     -0.1980
     10  CA         4.2100    2.2630   16.5250 C.3   128  ILE128      0.1595
     11  C          3.1150    1.2600   16.1820 C.2   128  ILE128      0.2287
     12  O          1.9350    1.5480   16.3620 O.2   128  ILE128     -0.2864
     13  CB         4.9410    2.6760   15.2210 C.3   128  ILE128      0.0276
     14  CG1        5.9100    3.8220   15.4990 C.3   128  ILE128      0.0022
     15  CG2        3.9450    3.1170   14.1850 C.3   128  ILE128      0.0022
     16  CD1        5.2630    5.0180   16.1240 C.3   128  ILE128      0.0001
     17  N          0.9790    0.1700   19.2160 N.3   131  GLY131     -0.1210
     18  CA         0.2170    1.3070   19.7110 C.3   131  GLY131      0.1956
     19  C         -1.0260    1.5330   18.8600 C.2   131  GLY131      0.2611
     20  O         -2.1300    1.7340   19.3750 O.2   131  GLY131     -0.2717
     21  N         -0.8410    1.5060   17.5450 N.am  132  LEU132     -0.1979
     22  CA        -1.9440    1.6750   16.6240 C.3   132  LEU132      0.1596
     23  C         -2.9410    0.5500   16.8720 C.2   132  LEU132      0.2287
     24  O         -4.1430    0.7800   16.9290 O.2   132  LEU132     -0.2864
     25  CB        -1.4330    1.6070   15.1920 C.3   132  LEU132      0.0297
     26  CG        -0.5010    2.7370   14.7650 C.3   132  LEU132      0.0022
     27  CD1        0.2750    2.3220   13.5430 C.3   132  LEU132      0.0001
     28  CD2       -1.3030    3.9920   14.4950 C.3   132  LEU132      0.0001
     29  N         -5.0160    0.9420   20.0280 N.3   135  ASN135     -0.1240
     30  CA        -6.0150    1.9830   19.8660 C.3   135  ASN135      0.1653
     31  C         -7.2170    1.4690   19.0810 C.2   135  ASN135      0.2266
     32  O         -8.3460    1.4900   19.5740 O.2   135  ASN135     -0.2867
     33  CB        -5.3870    3.2210   19.1960 C.3   135  ASN135      0.1155
     34  CG        -4.6340    4.0890   20.1910 C.2   135  ASN135      0.2627
     35  OD1       -4.7860    3.9080   21.3910 O.2   135  ASN135     -0.2716
     36  ND2       -3.8530    5.0530   19.7200 N.am  135  ASN135     -0.0877
     37  N          6.6800   15.5530   20.6760 N.3   322  THR322     -0.1203
     38  CA         5.4660   15.3760   21.4740 C.3   322  THR322      0.1994
     39  C          4.5730   14.2830   20.8970 C.2   322  THR322      0.2617
     40  O          3.9650   13.5100   21.6390 O.2   322  THR322     -0.2717
     41  CB         4.6320   16.6840   21.5560 C.3   322  THR322      0.1784
     42  OG1        5.4460   17.7460   22.0690 O.3   322  THR322     -0.2211
     43  CG2        3.4290   16.4950   22.4870 C.3   322  THR322      0.0376
     44  N          4.4910   14.2280   19.5720 N.am  323  GLU323     -0.1979
     45  CA         3.6720   13.2220   18.9050 C.3   323  GLU323      0.1602
     46  C          4.0220   11.8180   19.3920 C.2   323  GLU323      0.2287
     47  O          3.1840   11.1220   19.9680 O.2   323  GLU323     -0.2864
     48  CB         3.8630   13.2990   17.3830 C.3   323  GLU323      0.0415
     49  CG         4.8760   14.3510   16.9040 C.3   323  GLU323      0.1163
     50  CD         6.3390   13.8830   16.9310 C.2   323  GLU323      0.3649
     51  OE1        7.2120   14.6910   16.5380 O.co2 323  GLU323     -0.2457
     52  OE2        6.6220   12.7270   17.3300 O.co2 323  GLU323     -0.2457
     53  N          3.7910   10.9420   23.3660 N.3   326  THR326     -0.1203
     54  CA         2.4620   10.6200   23.8820 C.3   326  THR326      0.1994
     55  C          2.0550    9.2040   23.5070 C.2   326  THR326      0.2617
     56  O          1.4050    8.5090   24.2920 O.2   326  THR326     -0.2717
     57  CB         1.3900   11.6020   23.3660 C.3   326  THR326      0.1784
     58  OG1        1.3360   11.5520   21.9310 O.3   326  THR326     -0.2211
     59  CG2        1.7120   13.0250   23.8350 C.3   326  THR326      0.0376
     60  N          2.4530    8.7810   22.3090 N.am  327  ALA327     -0.1979
     61  CA         2.1390    7.4430   21.8140 C.3   327  ALA327      0.1597
     62  C          2.6890    6.3520   22.7400 C.2   327  ALA327      0.2287
     63  O          1.9710    5.4270   23.1270 O.2   327  ALA327     -0.2864
     64  CB         2.7000    7.2720   20.4110 C.3   327  ALA327      0.0319
     65  N          0.8510    6.3840   26.1740 N.3   330  ASN330     -0.1240
     66  CA        -0.4310    5.6990   26.0750 C.3   330  ASN330      0.1653
     67  C         -0.2770    4.1900   25.9630 C.2   330  ASN330      0.2266
     68  O         -1.0660    3.4510   26.5410 O.2   330  ASN330     -0.2867
     69  CB        -1.2430    6.2360   24.8900 C.3   330  ASN330      0.1155
     70  CG        -1.9690    7.5460   25.2170 C.2   330  ASN330      0.2627
     71  OD1       -2.7490    7.6100   26.1690 O.2   330  ASN330     -0.2716
     72  ND2       -1.7210    8.5880   24.4240 N.am  330  ASN330     -0.0877
@<TRIPOS>BOND
     1    27    26    1
     2    15    13    1
     3    28    26    1
     4    26    25    1
     5    25    22    1
     6    13    14    1
     7    13    10    1
     8    14    16    1
     9    11    12    2
    10    11    10    1
    11    10     9    1
    12    51    50   ar
    13    22    23    1
    14    22    21    1
    15    23    24    2
    16    49    50    1
    17    49    48    1
    18    50    52   ar
    19    48    45    1
    20     9     3   am
    21    21    19   am
    22     3     4    2
    23     3     2    1
    24    19    20    2
    25    19    18    1
    26    45    46    1
    27    45    44    1
    28    31    32    2
    29    31    30    1
    30    33    30    1
    31    33    34    1
    32    17    18    1
    33     1     2    1
    34    46    47    2
    35    44    39   am
    36    36    34   am
    37     2     5    1
    38    30    29    1
    39    34    35    2
    40     5     6    1
    41    64    61    1
    42    37    38    1
    43    39    38    1
    44    39    40    2
    45     6     8   am
    46     6     7    2
    47    38    41    1
    48    41    42    1
    49    41    43    1
    50    61    60    1
    51    61    62    1
    52    58    57    1
    53    60    55   am
    54    62    63    2
    55    57    59    1
    56    57    54    1
    57    53    54    1
    58    55    54    1
    59    55    56    2
    60    72    70   am
    61    69    70    1
    62    69    66    1
    63    70    71    2
    64    67    66    1
    65    67    68    2
    66    66    65    1
