@<TRIPOS>MOLECULE
tmp/2dvgD00.pdb
 72 65 0 0 0
SMALL
GASTEIGER

@<TRIPOS>ATOM
      1  N         74.5290   79.4500   40.0800 N.3    80  ASP80      -0.1239
      2  CA        74.5570   78.1750   39.3690 C.3    80  ASP80       0.1674
      3  C         75.9880   77.8770   38.9340 C.2    80  ASP80       0.2266
      4  O         76.6600   78.7300   38.3450 O.2    80  ASP80      -0.2867
      5  CB        73.6780   78.2240   38.1170 C.3    80  ASP80       0.1410
      6  CG        72.3260   78.8380   38.3740 C.2    80  ASP80       0.3668
      7  OD1       72.2810   79.9980   38.8340 O.co2  80  ASP80      -0.2456
      8  OD2       71.3080   78.1680   38.1070 O.co2  80  ASP80      -0.2456
      9  N         78.4920   77.4660   36.8130 N.3    82  ALA82      -0.1231
     10  CA        78.5830   77.6710   35.3840 C.3    82  ALA82       0.1694
     11  C         79.8440   78.4870   35.0960 C.2    82  ALA82       0.2592
     12  O         80.3860   79.1130   36.0080 O.2    82  ALA82      -0.2718
     13  CB        77.3260   78.4070   34.9030 C.3    82  ALA82       0.0304
     14  N         80.3210   78.4910   33.8480 N.am   83  ASP83      -0.1974
     15  CA        79.7140   77.7710   32.7260 C.3    83  ASP83       0.1709
     16  C         80.5380   76.5830   32.2470 C.2    83  ASP83       0.2293
     17  O         80.0160   75.6760   31.6080 O.2    83  ASP83      -0.2864
     18  CB        79.5010   78.7300   31.5640 C.3    83  ASP83       0.1436
     19  CG        78.1750   79.4300   31.6340 C.2    83  ASP83       0.3671
     20  OD1       77.1560   78.8010   31.2790 O.co2  83  ASP83      -0.2456
     21  OD2       78.1460   80.6040   32.0520 O.co2  83  ASP83      -0.2456
     22  N         78.9650   83.5500   30.0100 N.3   103  GLY103     -0.1210
     23  CA        78.0020   82.4710   30.0620 C.3   103  GLY103      0.1956
     24  C         78.3470   81.2570   29.2190 C.2   103  GLY103      0.2612
     25  O         79.4060   80.6490   29.3990 O.2   103  GLY103     -0.2717
     26  N         77.4600   80.9150   28.2860 N.am  104  GLY104     -0.1956
     27  CA        77.6640   79.7490   27.4390 C.3   104  GLY104      0.1869
     28  C         78.6670   79.8580   26.3060 C.2   104  GLY104      0.2309
     29  O         79.0890   78.8410   25.7500 O.2   104  GLY104     -0.2863
     30  N         76.4860   73.5530   32.1480 N.3   125  TYR125     -0.1241
     31  CA        75.1590   74.1790   32.1670 C.3   125  TYR125      0.1605
     32  C         74.5260   74.0620   30.7880 C.2   125  TYR125      0.2264
     33  O         74.9510   74.7150   29.8450 O.2   125  TYR125     -0.2867
     34  CB        75.2290   75.6580   32.5570 C.3   125  TYR125      0.0534
     35  CG        73.8780   76.3480   32.4710 C.ar  125  TYR125     -0.0201
     36  CD1       73.3050   76.6470   31.2350 C.ar  125  TYR125     -0.0009
     37  CD2       73.1420   76.6350   33.6200 C.ar  125  TYR125     -0.0009
     38  CE1       72.0360   77.2050   31.1380 C.ar  125  TYR125      0.0417
     39  CE2       71.8660   77.1950   33.5350 C.ar  125  TYR125      0.0417
     40  CZ        71.3200   77.4740   32.2880 C.ar  125  TYR125      0.1957
     41  OH        70.0530   77.9970   32.1810 O.3   125  TYR125     -0.2866
     42  N         73.0490   74.8220   27.7110 N.3   127  ASN127     -0.1240
     43  CA        72.6220   75.9970   26.9600 C.3   127  ASN127      0.1653
     44  C         71.8720   75.5410   25.7120 C.2   127  ASN127      0.2266
     45  O         72.4800   75.0840   24.7470 O.2   127  ASN127     -0.2867
     46  CB        73.8270   76.8510   26.5630 C.3   127  ASN127      0.1155
     47  CG        74.3370   77.6970   27.7070 C.2   127  ASN127      0.2627
     48  OD1       74.6670   77.1870   28.7700 O.2   127  ASN127     -0.2716
     49  ND2       74.3980   79.0030   27.4940 N.am  127  ASN127     -0.0877
     50  N         70.3580   77.2940   23.5090 N.3   129  GLU129     -0.1245
     51  CA        70.6650   78.1250   22.3540 C.3   129  GLU129      0.1567
     52  C         71.8510   77.5490   21.5760 C.2   129  GLU129      0.2260
     53  O         72.0080   77.8150   20.3870 O.2   129  GLU129     -0.2867
     54  CB        70.9590   79.5700   22.7910 C.3   129  GLU129      0.0388
     55  CG        72.0250   79.7110   23.8660 C.3   129  GLU129      0.1160
     56  CD        71.4770   79.6060   25.2830 C.2   129  GLU129      0.3649
     57  OE1       70.6230   78.7310   25.5450 O.co2 129  GLU129     -0.2457
     58  OE2       71.9180   80.3930   26.1460 O.co2 129  GLU129     -0.2457
     59  N         78.0210   84.2440   33.9690 N.3   211  SER211     -0.1217
     60  CA        76.9470   85.1700   33.6570 C.3   211  SER211      0.1889
     61  C         76.5070   85.8660   34.9450 C.2   211  SER211      0.2288
     62  O         77.2560   85.9060   35.9290 O.2   211  SER211     -0.2866
     63  CB        75.7730   84.4120   33.0390 C.3   211  SER211      0.2089
     64  OG        75.2650   83.4510   33.9480 O.3   211  SER211     -0.2183
     65  N         73.9470   84.9720   36.9600 N.3   213  GLY213     -0.1210
     66  CA        73.7160   83.9500   37.9710 C.3   213  GLY213      0.1956
     67  C         74.6290   82.7390   37.8470 C.2   213  GLY213      0.2612
     68  O         74.7040   81.9100   38.7560 O.2   213  GLY213     -0.2717
     69  N         75.3270   82.6340   36.7210 N.am  214  GLY214     -0.1956
     70  CA        76.2220   81.5100   36.5150 C.3   214  GLY214      0.1869
     71  C         77.6570   81.8000   36.9140 C.2   214  GLY214      0.2309
     72  O         78.3820   82.4990   36.2070 O.2   214  GLY214     -0.2863
@<TRIPOS>BOND
     1    53    52    2
     2    52    51    1
     3    51    54    1
     4    51    50    1
     5    54    55    1
     6    55    56    1
     7    45    44    2
     8    56    57   ar
     9    56    58   ar
    10    44    43    1
    11    29    28    2
    12    28    27    1
    13    46    43    1
    14    46    47    1
    15    43    42    1
    16    27    26    1
    17    49    47   am
    18    47    48    2
    19    26    24   am
    20    24    25    2
    21    24    23    1
    22    33    32    2
    23    22    23    1
    24    32    31    1
    25    38    36   ar
    26    38    40   ar
    27    36    35   ar
    28    20    19   ar
    29    18    19    1
    30    18    15    1
    31    17    16    2
    32    19    21   ar
    33    30    31    1
    34    31    34    1
    35    41    40    1
    36    16    15    1
    37    40    39   ar
    38    35    34    1
    39    35    37   ar
    40    15    14    1
    41    63    60    1
    42    63    64    1
    43    39    37   ar
    44    60    59    1
    45    60    61    1
    46    14    11   am
    47    13    10    1
    48    61    62    2
    49    11    10    1
    50    11    12    2
    51    10     9    1
    52    72    71    2
    53    70    69    1
    54    70    71    1
    55    69    67   am
    56    65    66    1
    57    67    66    1
    58    67    68    2
    59     8     6   ar
    60     5     6    1
    61     5     2    1
    62     4     3    2
    63     6     7   ar
    64     3     2    1
    65     2     1    1
