@<TRIPOS>MOLECULE
tmp/2dvhA00.pdb
 192 179 0 0 0
SMALL
GASTEIGER

@<TRIPOS>ATOM
      1  N          1.6330   -6.1810   -7.8630 N.3     6  LEU6       -0.1245
      2  CA         1.0490   -4.8640   -7.6610 C.3     6  LEU6        0.1561
      3  C          2.1340   -3.8710   -7.2420 C.2     6  LEU6        0.2260
      4  O          2.1840   -2.7440   -7.7410 O.2     6  LEU6       -0.2867
      5  CB        -0.0710   -4.9080   -6.6090 C.3     6  LEU6        0.0270
      6  CG        -1.2080   -5.8900   -6.9530 C.3     6  LEU6        0.0019
      7  CD1       -1.1280   -7.1550   -6.0910 C.3     6  LEU6        0.0001
      8  CD2       -2.5700   -5.2350   -6.7100 C.3     6  LEU6        0.0001
      9  N          4.1010   -1.3060   -9.5200 N.3     9  SER9       -0.1202
     10  CA         3.5190   -0.0100   -9.8530 C.3     9  SER9        0.2020
     11  C          3.7210    0.9970   -8.7100 C.2     9  SER9        0.2619
     12  O          4.0560    2.1630   -8.9140 O.2     9  SER9       -0.2717
     13  CB         2.0200   -0.2180  -10.0970 C.3     9  SER9        0.2103
     14  OG         1.8290   -1.2430  -11.0540 O.3     9  SER9       -0.2182
     15  N          3.5020    0.5040   -7.4940 N.am   10  CYS10      -0.1969
     16  CA         3.5370    1.1860   -6.2090 C.3    10  CYS10       0.1712
     17  C          4.8680    1.8930   -5.9960 C.2    10  CYS10       0.2296
     18  O          4.9280    2.9610   -5.3770 O.2    10  CYS10      -0.2864
     19  CB         3.3300    0.0970   -5.1660 C.3    10  CYS10       0.0983
     20  SG         2.4840    0.4720   -3.6660 S.3    10  CYS10      -0.0798
     21  N          5.2970    5.6820   -6.0850 N.3    13  CYS13      -0.1221
     22  CA         5.0170    6.5890   -4.9720 C.3    13  CYS13       0.1808
     23  C          5.7510    6.1990   -3.6900 C.2    13  CYS13       0.2601
     24  O          5.9760    7.0570   -2.8420 O.2    13  CYS13      -0.2717
     25  CB         3.5080    6.6470   -4.7420 C.3    13  CYS13       0.0970
     26  SG         2.9070    8.2080   -4.0500 S.3    13  CYS13      -0.0800
     27  N          6.1290    4.9220   -3.5440 N.am   14  HIS14      -0.1975
     28  CA         6.7930    4.4010   -2.3480 C.3    14  HIS14       0.1656
     29  C          8.2820    4.0870   -2.5390 C.2    14  HIS14       0.2291
     30  O          9.0430    4.0870   -1.5690 O.2    14  HIS14      -0.2864
     31  CB         6.0190    3.1710   -1.8780 C.3    14  HIS14       0.0771
     32  CG         4.7270    3.5450   -1.2110 C.ar   14  HIS14       0.0820
     33  ND1        4.7000    4.1150    0.0480 N.ar   14  HIS14      -0.2267
     34  CD2        3.4220    3.5260   -1.6310 C.ar   14  HIS14       0.1154
     35  CE1        3.4150    4.3360    0.3530 C.ar   14  HIS14       0.1986
     36  NE2        2.5720    3.9130   -0.5910 N.ar   14  HIS14      -0.2212
     37  N          5.9360   10.3300   -0.8720 N.3    22  ALA22      -0.1231
     38  CA         4.7580   10.0360   -1.6670 C.3    22  ALA22       0.1694
     39  C          4.1090   11.3700   -2.0500 C.2    22  ALA22       0.2591
     40  O          4.8150   12.3270   -2.3690 O.2    22  ALA22      -0.2718
     41  CB         3.8580    9.1070   -0.8420 C.3    22  ALA22       0.0304
     42  N          2.7750   11.4720   -2.0170 N.am   23  MET23      -0.1979
     43  CA         2.0900   12.7380   -2.2530 C.3    23  MET23       0.1605
     44  C          2.2810   13.6240   -1.0140 C.2    23  MET23       0.2287
     45  O          1.3540   13.8400   -0.2360 O.2    23  MET23      -0.2864
     46  CB         0.6120   12.4770   -2.5730 C.3    23  MET23       0.0413
     47  CG         0.4410   11.9880   -4.0150 C.3    23  MET23       0.0598
     48  SD        -1.2440   11.4690   -4.4270 S.3    23  MET23      -0.1393
     49  CE        -1.2470   11.7570   -6.2100 C.3    23  MET23       0.0692
     50  N          4.5910   11.4360    4.0310 N.3    26  ALA26      -0.1231
     51  CA         3.8010   10.2590    4.3570 C.3    26  ALA26       0.1694
     52  C          4.6690    9.2900    5.1520 C.2    26  ALA26       0.2591
     53  O          5.8860    9.2730    4.9680 O.2    26  ALA26      -0.2718
     54  CB         3.3230    9.6050    3.0610 C.3    26  ALA26       0.0304
     55  N          4.0670    8.5000    6.0440 N.am   27  LYS27      -0.1980
     56  CA         4.7520    7.4950    6.8010 C.3    27  LYS27       0.1596
     57  C          5.3450    6.4790    5.8220 C.2    27  LYS27       0.2287
     58  O          4.6480    6.0480    4.9030 O.2    27  LYS27      -0.2864
     59  CB         3.6900    6.8130    7.6560 C.3    27  LYS27       0.0298
     60  CG         3.0480    7.6590    8.7580 C.3    27  LYS27       0.0038
     61  CD         4.0590    8.1910    9.7820 C.3    27  LYS27       0.0206
     62  CE         3.3410    8.8560   10.9630 C.3    27  LYS27       0.1093
     63  NZ         2.4960    9.9840   10.5290 N.3    27  LYS27      -0.1314
     64  N          6.3880    2.9800    4.2940 N.3    29  VAL29      -0.1245
     65  CA         5.8310    1.6340    4.3270 C.3    29  VAL29       0.1561
     66  C          6.8580    0.6870    4.9370 C.2    29  VAL29       0.2260
     67  O          6.4840   -0.2490    5.6390 O.2    29  VAL29      -0.2867
     68  CB         5.5250    1.2450    2.8740 C.3    29  VAL29       0.0252
     69  CG1        5.3850   -0.2570    2.6080 C.3    29  VAL29       0.0019
     70  CG2        4.2290    1.9290    2.4340 C.3    29  VAL29       0.0019
     71  N          6.5390   -1.5280    8.2130 N.3    32  GLN32      -0.1245
     72  CA         5.7170   -1.1080    9.3740 C.3    32  GLN32       0.1566
     73  C          5.3840   -2.3510   10.2040 C.2    32  GLN32       0.2260
     74  O          5.6330   -2.4510   11.4020 O.2    32  GLN32      -0.2867
     75  CB         4.4160   -0.3580    9.0150 C.3    32  GLN32       0.0367
     76  CG         4.5790    0.6440    7.8760 C.3    32  GLN32       0.0905
     77  CD         3.4130    1.6260    7.7390 C.2    32  GLN32       0.2608
     78  OE1        2.2800    1.2800    8.0570 O.2    32  GLN32      -0.2717
     79  NE2        3.6720    2.8270    7.2200 N.am   32  GLN32      -0.0878
     80  N          0.2840   -2.9240    7.7970 N.3    37  LEU37      -0.1245
     81  CA         0.1860   -2.8210    6.3600 C.3    37  LEU37       0.1561
     82  C         -1.0920   -3.4790    5.8630 C.2    37  LEU37       0.2260
     83  O         -1.7780   -2.9000    5.0340 O.2    37  LEU37      -0.2867
     84  CB         1.4220   -3.4810    5.7450 C.3    37  LEU37       0.0270
     85  CG         2.7110   -2.6870    6.0170 C.3    37  LEU37       0.0019
     86  CD1        3.9260   -3.5750    5.7440 C.3    37  LEU37       0.0001
     87  CD2        2.7770   -1.4350    5.1410 C.3    37  LEU37       0.0001
     88  N         -4.0990   -1.2530    7.0110 N.3    40  LYS40      -0.1231
     89  CA        -4.0910   -0.0060    6.2610 C.3    40  LYS40       0.1693
     90  C         -4.4060   -0.2460    4.7790 C.2    40  LYS40       0.2591
     91  O         -5.2650    0.4330    4.2200 O.2    40  LYS40      -0.2718
     92  CB        -2.7460    0.7110    6.4640 C.3    40  LYS40       0.0285
     93  CG        -2.7480    1.6160    7.7100 C.3    40  LYS40       0.0035
     94  CD        -2.4170    0.8580    9.0010 C.3    40  LYS40       0.0206
     95  CE        -2.2690    1.8040   10.1980 C.3    40  LYS40       0.1093
     96  NZ        -3.5040    2.5610   10.4640 N.3    40  LYS40      -0.1314
     97  N         -3.7320   -1.2000    4.1320 N.am   41  MET41      -0.1979
     98  CA        -3.9510   -1.4940    2.7220 C.3    41  MET41       0.1605
     99  C         -5.3920   -1.9710    2.5030 C.2    41  MET41       0.2287
    100  O         -6.0450   -1.5510    1.5470 O.2    41  MET41      -0.2864
    101  CB        -2.8370   -2.3970    2.1460 C.3    41  MET41       0.0413
    102  CG        -2.9800   -3.9230    2.2760 C.3    41  MET41       0.0598
    103  SD        -4.1310   -4.6270    1.0960 S.3    41  MET41      -0.1393
    104  CE        -3.4030   -4.0030   -0.4380 C.3    41  MET41       0.0692
    105  N         -7.5960    1.1050    2.7960 N.3    44  TYR44      -0.1241
    106  CA        -7.5590    1.8150    1.5390 C.3    44  TYR44       0.1605
    107  C         -8.4220    1.0940    0.4990 C.2    44  TYR44       0.2264
    108  O         -9.3690    1.6790   -0.0110 O.2    44  TYR44      -0.2867
    109  CB        -6.0970    1.9770    1.1040 C.3    44  TYR44       0.0534
    110  CG        -5.2650    3.0080    1.8630 C.ar   44  TYR44      -0.0201
    111  CD1       -5.7360    4.3260    2.0450 C.ar   44  TYR44      -0.0009
    112  CD2       -3.9460    2.6960    2.2500 C.ar   44  TYR44      -0.0009
    113  CE1       -4.9410    5.2800    2.7100 C.ar   44  TYR44       0.0417
    114  CE2       -3.1390    3.6640    2.8730 C.ar   44  TYR44       0.0417
    115  CZ        -3.6460    4.9450    3.1270 C.ar   44  TYR44       0.1957
    116  OH        -2.8530    5.8870    3.7120 O.3    44  TYR44      -0.2866
    117  N        -10.1310    3.5230    5.2400 N.3    49  TYR49      -0.1241
    118  CA        -8.9960    4.4040    5.4730 C.3    49  TYR49       0.1605
    119  C         -8.7610    5.1470    4.1620 C.2    49  TYR49       0.2264
    120  O         -8.8320    4.5330    3.1020 O.2    49  TYR49      -0.2867
    121  CB        -7.7650    3.5810    5.8980 C.3    49  TYR49       0.0534
    122  CG        -6.4840    4.3580    6.1580 C.ar   49  TYR49      -0.0201
    123  CD1       -6.5110    5.6460    6.7260 C.ar   49  TYR49      -0.0009
    124  CD2       -5.2420    3.7530    5.8820 C.ar   49  TYR49      -0.0009
    125  CE1       -5.3130    6.3470    6.9390 C.ar   49  TYR49       0.0417
    126  CE2       -4.0420    4.4260    6.1710 C.ar   49  TYR49       0.0417
    127  CZ        -4.0780    5.7390    6.6710 C.ar   49  TYR49       0.1957
    128  OH        -2.9370    6.4460    6.8960 O.3    49  TYR49      -0.2866
    129  N         -5.4390   13.0450   -0.8650 N.3    53  ARG53      -0.1231
    130  CA        -4.2560   12.5350   -1.5300 C.3    53  ARG53       0.1694
    131  C         -4.2600   11.0110   -1.6700 C.2    53  ARG53       0.2591
    132  O         -3.6080   10.4640   -2.5540 O.2    53  ARG53      -0.2718
    133  CB        -3.0180   13.0320   -0.7760 C.3    53  ARG53       0.0321
    134  CG        -2.7670   12.3700    0.5910 C.3    53  ARG53       0.0489
    135  CD        -1.4320   12.8810    1.1400 C.3    53  ARG53       0.2205
    136  NE        -1.1340   12.3640    2.4840 N.pl3  53  ARG53      -0.0865
    137  CZ         0.0600   12.5120    3.0820 C.cat  53  ARG53       0.5346
    138  NH1        1.0620   13.1400    2.4620 N.pl3  53  ARG53       0.1354
    139  NH2        0.2790   12.0350    4.3100 N.pl3  53  ARG53       0.1354
    140  N         -4.9830   10.3180   -0.7900 N.am   54  LYS54      -0.1980
    141  CA        -5.0350    8.8710   -0.8000 C.3    54  LYS54       0.1596
    142  C         -5.8700    8.3690   -1.9750 C.2    54  LYS54       0.2287
    143  O         -5.7210    7.2160   -2.3530 O.2    54  LYS54      -0.2864
    144  CB        -5.6200    8.3400    0.5130 C.3    54  LYS54       0.0298
    145  CG        -5.1240    9.0620    1.7750 C.3    54  LYS54       0.0038
    146  CD        -3.6320    8.8360    2.0350 C.3    54  LYS54       0.0206
    147  CE        -3.2170    9.4490    3.3780 C.3    54  LYS54       0.1093
    148  NZ        -3.6530    8.6120    4.5130 N.3    54  LYS54      -0.1314
    149  N         -5.8350    8.4220   -5.2490 N.3    56  MET56      -0.1230
    150  CA        -5.1040    7.6960   -6.2830 C.3    56  MET56       0.1702
    151  C         -4.7400    6.2950   -5.7820 C.2    56  MET56       0.2592
    152  O         -5.0620    5.2860   -6.4110 O.2    56  MET56      -0.2718
    153  CB        -3.8650    8.5060   -6.6890 C.3    56  MET56       0.0401
    154  CG        -3.0760    7.8180   -7.8100 C.3    56  MET56       0.0596
    155  SD        -1.6880    8.7890   -8.4500 S.3    56  MET56      -0.1393
    156  CE        -0.9760    7.5860   -9.5930 C.3    56  MET56       0.0692
    157  N         -4.0740    6.2470   -4.6270 N.am   57  MET57      -0.1979
    158  CA        -3.6750    5.0100   -3.9810 C.3    57  MET57       0.1605
    159  C         -4.8880    4.1080   -3.7790 C.2    57  MET57       0.2287
    160  O         -4.8050    2.9220   -4.0660 O.2    57  MET57      -0.2864
    161  CB        -2.9910    5.3250   -2.6490 C.3    57  MET57       0.0413
    162  CG        -2.7400    4.0650   -1.8100 C.3    57  MET57       0.0598
    163  SD        -1.7720    4.3420   -0.3130 S.3    57  MET57      -0.1393
    164  CE        -2.4180    5.9130    0.2920 C.3    57  MET57       0.0692
    165  N         -5.7040    2.5000   -6.8390 N.3    60  ALA60      -0.1231
    166  CA        -4.5810    1.6490   -7.2140 C.3    60  ALA60       0.1694
    167  C         -4.6660    0.3070   -6.4810 C.2    60  ALA60       0.2591
    168  O         -4.6420   -0.7500   -7.1080 O.2    60  ALA60      -0.2718
    169  CB        -3.2470    2.3560   -6.9520 C.3    60  ALA60       0.0304
    170  N         -4.7970    0.3480   -5.1540 N.am   61  VAL61      -0.1980
    171  CA        -4.8810   -0.8540   -4.3420 C.3    61  VAL61       0.1595
    172  C         -6.2230   -1.5640   -4.5280 C.2    61  VAL61       0.2287
    173  O         -6.2670   -2.7840   -4.4070 O.2    61  VAL61      -0.2864
    174  CB        -4.5610   -0.5650   -2.8670 C.3    61  VAL61       0.0276
    175  CG1       -3.2030    0.1270   -2.7250 C.3    61  VAL61       0.0022
    176  CG2       -5.6260    0.2680   -2.1550 C.3    61  VAL61       0.0022
    177  N          0.2420   -8.3610   -0.4590 N.3    72  LEU72      -0.1245
    178  CA         0.8310   -7.0480   -0.6070 C.3    72  LEU72       0.1561
    179  C          1.3640   -6.6260    0.7540 C.2    72  LEU72       0.2260
    180  O          2.5040   -6.1820    0.8640 O.2    72  LEU72      -0.2867
    181  CB        -0.2430   -6.1320   -1.1990 C.3    72  LEU72       0.0270
    182  CG         0.1930   -4.7970   -1.8100 C.3    72  LEU72       0.0019
    183  CD1        1.6090   -4.8050   -2.3950 C.3    72  LEU72       0.0001
    184  CD2       -0.8110   -4.4890   -2.9310 C.3    72  LEU72       0.0001
    185  N          5.2710   -6.0700    1.5360 N.3    76  MET76      -0.1245
    186  CA         5.6600   -4.7810    2.0960 C.3    76  MET76       0.1570
    187  C          6.2500   -4.9300    3.5050 C.2    76  MET76       0.2261
    188  O          7.1000   -4.1430    3.9060 O.2    76  MET76      -0.2867
    189  CB         4.4640   -3.8230    2.0830 C.3    76  MET76       0.0387
    190  CG         4.1520   -3.3270    0.6660 C.3    76  MET76       0.0595
    191  SD         2.8620   -2.0580    0.5350 S.3    76  MET76      -0.1393
    192  CE         1.4870   -2.8830    1.3630 C.3    76  MET76       0.0692
@<TRIPOS>BOND
     1    14    13    1
     2    13    10    1
     3    10     9    1
     4    10    11    1
     5   156   155    1
     6    12    11    2
     7    11    15   am
     8   155   154    1
     9     1     2    1
    10   154   153    1
    11     4     3    2
    12     2     3    1
    13     2     5    1
    14    15    16    1
    15   166   169    1
    16   166   165    1
    17   166   167    1
    18   168   167    2
    19     6     8    1
    20     6     5    1
    21     6     7    1
    22   153   150    1
    23   167   170   am
    24   152   151    2
    25   150   151    1
    26   150   149    1
    27    49    48    1
    28    16    17    1
    29    16    19    1
    30    21    22    1
    31    17    18    2
    32   151   157   am
    33    19    20    1
    34   170   171    1
    35    22    25    1
    36    22    23    1
    37    25    26    1
    38   157   158    1
    39   172   173    2
    40   172   171    1
    41    48    47    1
    42   171   174    1
    43   160   159    2
    44    47    46    1
    45   158   159    1
    46   158   161    1
    47    23    27   am
    48    23    24    2
    49    27    28    1
    50   184   182    1
    51   174   175    1
    52   174   176    1
    53   161   162    1
    54    46    43    1
    55   132   131    2
    56    29    28    1
    57    29    30    2
    58   183   182    1
    59    40    39    2
    60   143   142    2
    61    28    31    1
    62    43    42    1
    63    43    44    1
    64    39    42   am
    65    39    38    1
    66   142   141    1
    67    31    32    1
    68   162   163    1
    69   182   181    1
    70   131   130    1
    71   131   140   am
    72    38    37    1
    73    38    41    1
    74    34    32   ar
    75    34    36   ar
    76   130   129    1
    77   130   133    1
    78    32    33   ar
    79   181   178    1
    80    44    45    2
    81   141   140    1
    82   141   144    1
    83   133   134    1
    84   178   177    1
    85   178   179    1
    86    36    35   ar
    87   104   103    1
    88   163   164    1
    89   108   107    2
    90    33    35   ar
    91   107   106    1
    92   144   145    1
    93   191   190    1
    94   191   192    1
    95   134   135    1
    96   190   189    1
    97   179   180    2
    98   103   102    1
    99   109   106    1
   100   109   110    1
   101   135   136    1
   102   185   186    1
   103   106   105    1
   104   100    99    2
   105   145   146    1
   106   110   111   ar
   107   110   112   ar
   108   146   147    1
   109   111   113   ar
   110   189   186    1
   111   186   187    1
   112   101   102    1
   113   101    98    1
   114   112   114   ar
   115    70    68    1
   116   138   137    1
   117   136   137    2
   118    99    98    1
   119    69    68    1
   120   113   115   ar
   121    98    97    1
   122   114   115   ar
   123    68    65    1
   124    54    51    1
   125   137   139    1
   126   120   119    2
   127   115   116    1
   128   147   148    1
   129   187   188    2
   130    50    51    1
   131    97    90   am
   132   119   118    1
   133    91    90    2
   134    64    65    1
   135    65    66    1
   136    51    52    1
   137    90    89    1
   138    58    57    2
   139    66    67    2
   140    53    52    2
   141    83    82    2
   142    87    85    1
   143    52    55   am
   144   117   118    1
   145   118   121    1
   146    86    85    1
   147    84    85    1
   148    84    81    1
   149    57    56    1
   150    82    81    1
   151   124   122   ar
   152   124   126   ar
   153   121   122    1
   154    55    56    1
   155   122   123   ar
   156   126   127   ar
   157    89    92    1
   158    89    88    1
   159    81    80    1
   160    92    93    1
   161   127   128    1
   162   127   125   ar
   163   123   125   ar
   164    56    59    1
   165    79    77   am
   166    59    60    1
   167    93    94    1
   168    77    76    1
   169    77    78    2
   170    76    75    1
   171    71    72    1
   172    60    61    1
   173    94    95    1
   174    75    72    1
   175    72    73    1
   176    61    62    1
   177    95    96    1
   178    73    74    2
   179    63    62    1
