@<TRIPOS>MOLECULE
tmp/2dvlB00.pdb
 189 180 0 0 0
SMALL
GASTEIGER

@<TRIPOS>ATOM
      1  N        -43.0710  -46.8850  -17.1670 N.3    81  VAL81      -0.1245
      2  CA       -41.8620  -47.6820  -17.0470 C.3    81  VAL81       0.1561
      3  C        -41.9860  -48.9240  -17.9280 C.2    81  VAL81       0.2260
      4  O        -41.0530  -49.2720  -18.6410 O.2    81  VAL81      -0.2867
      5  CB       -41.5660  -48.0900  -15.5750 C.3    81  VAL81       0.0252
      6  CG1      -42.6050  -49.0670  -15.0730 C.3    81  VAL81       0.0019
      7  CG2      -40.1850  -48.7090  -15.4870 C.3    81  VAL81       0.0019
      8  N        -39.5690  -50.0220  -21.0900 N.3    85  VAL85      -0.1245
      9  CA       -38.8370  -51.2750  -21.0700 C.3    85  VAL85       0.1561
     10  C        -39.1640  -52.1180  -22.3010 C.2    85  VAL85       0.2260
     11  O        -38.2620  -52.5860  -22.9900 O.2    85  VAL85      -0.2867
     12  CB       -39.1360  -52.0720  -19.7900 C.3    85  VAL85       0.0252
     13  CG1      -38.5510  -53.4680  -19.8900 C.3    85  VAL85       0.0019
     14  CG2      -38.5390  -51.3540  -18.6020 C.3    85  VAL85       0.0019
     15  N        -36.3930  -57.2980  -20.3320 N.3   119  PHE119     -0.1241
     16  CA       -34.9420  -57.4260  -20.3490 C.3   119  PHE119      0.1605
     17  C        -34.5260  -58.0700  -19.0290 C.2   119  PHE119      0.2264
     18  O        -34.9910  -57.6600  -17.9650 O.2   119  PHE119     -0.2867
     19  CB       -34.2980  -56.0480  -20.4970 C.3   119  PHE119      0.0534
     20  CG       -32.8090  -56.0920  -20.6120 C.ar  119  PHE119     -0.0203
     21  CD1      -32.2020  -56.5850  -21.7650 C.ar  119  PHE119     -0.0042
     22  CD2      -32.0050  -55.6860  -19.5500 C.ar  119  PHE119     -0.0042
     23  CE1      -30.8190  -56.6770  -21.8590 C.ar  119  PHE119     -0.0003
     24  CE2      -30.6210  -55.7750  -19.6340 C.ar  119  PHE119     -0.0003
     25  CZ       -30.0260  -56.2730  -20.7920 C.ar  119  PHE119     -0.0000
     26  N        -31.2350  -58.8930  -16.8450 N.3   121  LEU121     -0.1231
     27  CA       -29.8040  -58.7900  -16.5940 C.3   121  LEU121      0.1693
     28  C        -29.4900  -59.0230  -15.1190 C.2   121  LEU121      0.2593
     29  O        -28.7270  -59.9220  -14.7600 O.2   121  LEU121     -0.2718
     30  CB       -29.3050  -57.4080  -17.0200 C.3   121  LEU121      0.0284
     31  CG       -27.8180  -57.1380  -16.7960 C.3   121  LEU121      0.0019
     32  CD1      -27.0140  -58.2990  -17.3690 C.3   121  LEU121      0.0001
     33  CD2      -27.4160  -55.8230  -17.4550 C.3   121  LEU121      0.0001
     34  N        -30.1020  -58.2000  -14.2760 N.am  122  THR122     -0.1939
     35  CA       -29.9280  -58.2490  -12.8350 C.3   122  THR122      0.2028
     36  C        -30.0730  -59.6460  -12.2460 C.2   122  THR122      0.2642
     37  O        -30.9150  -60.4350  -12.6750 O.2   122  THR122     -0.2714
     38  CB       -30.9500  -57.3200  -12.1380 C.3   122  THR122      0.1808
     39  OG1      -30.8340  -55.9920  -12.6690 O.3   122  THR122     -0.2208
     40  CG2      -30.7070  -57.2880  -10.6360 C.3   122  THR122      0.0379
     41  N        -29.2440  -59.9260  -11.2450 N.am  123  GLU123     -0.1976
     42  CA       -29.2340  -61.2000  -10.5290 C.3   123  GLU123      0.1602
     43  C        -29.1680  -60.8930   -9.0270 C.2   123  GLU123      0.2287
     44  O        -28.6200  -59.8680   -8.6230 O.2   123  GLU123     -0.2864
     45  CB       -28.0210  -62.0310  -10.9520 C.3   123  GLU123      0.0415
     46  CG       -28.2020  -62.7840  -12.2570 C.3   123  GLU123      0.1163
     47  CD       -26.8940  -63.3430  -12.8020 C.2   123  GLU123      0.3649
     48  OE1      -25.9560  -63.5730  -12.0070 O.co2 123  GLU123     -0.2457
     49  OE2      -26.8090  -63.5610  -14.0260 O.co2 123  GLU123     -0.2457
     50  N        -25.8170  -59.8760   -8.2990 N.3   126  ALA126     -0.1231
     51  CA       -25.2030  -58.9100   -9.1980 C.3   126  ALA126      0.1694
     52  C        -26.2120  -57.9080   -9.7610 C.2   126  ALA126      0.2593
     53  O        -27.1640  -58.2840  -10.4540 O.2   126  ALA126     -0.2718
     54  CB       -24.4920  -59.6380  -10.3470 C.3   126  ALA126      0.0304
     55  N        -25.9930  -56.6320   -9.4570 N.am  127  GLY127     -0.1942
     56  CA       -26.8700  -55.5910   -9.9510 C.3   127  GLY127      0.2014
     57  C        -26.0710  -54.5630  -10.7270 C.2   127  GLY127      0.2639
     58  O        -26.0070  -54.6060  -11.9630 O.2   127  GLY127     -0.2714
     59  N        -25.4510  -53.6370  -10.0000 N.am  128  SER128     -0.1949
     60  CA       -24.6540  -52.6020  -10.6300 C.3   128  SER128      0.1924
     61  C        -23.4860  -53.2490  -11.3470 C.2   128  SER128      0.2314
     62  O        -22.9710  -52.7140  -12.3240 O.2   128  SER128     -0.2863
     63  CB       -24.1410  -51.6130   -9.5860 C.3   128  SER128      0.2116
     64  OG       -25.2160  -50.9780   -8.9240 O.3   128  SER128     -0.2180
     65  N        -35.7860  -58.7370  -10.3090 N.3   152  TRP152     -0.1227
     66  CA       -36.3150  -57.4040  -10.5740 C.3   152  TRP152      0.1737
     67  C        -36.7380  -57.1790  -12.0240 C.2   152  TRP152      0.2595
     68  O        -36.6980  -56.0560  -12.5230 O.2   152  TRP152     -0.2718
     69  CB       -35.2880  -56.3440  -10.1640 C.3   152  TRP152      0.0564
     70  CG       -35.1650  -56.1840   -8.6910 C.ar  152  TRP152      0.0003
     71  CD1      -34.1040  -56.5380   -7.9100 C.ar  152  TRP152      0.0946
     72  CD2      -36.1520  -55.6380   -7.8060 C.ar  152  TRP152      0.0152
     73  NE1      -34.3680  -56.2460   -6.5900 N.ar  152  TRP152     -0.2442
     74  CE2      -35.6180  -55.6930   -6.5000 C.ar  152  TRP152      0.0810
     75  CE3      -37.4380  -55.1070   -7.9910 C.ar  152  TRP152      0.0012
     76  CZ2      -36.3270  -55.2360   -5.3800 C.ar  152  TRP152      0.0191
     77  CZ3      -38.1430  -54.6540   -6.8770 C.ar  152  TRP152      0.0001
     78  CH2      -37.5830  -54.7220   -5.5900 C.ar  152  TRP152      0.0015
     79  N        -37.1630  -58.2450  -12.6910 N.am  153  ILE153     -0.1966
     80  CA       -37.5740  -58.1550  -14.0840 C.3   153  ILE153      0.1727
     81  C        -38.9320  -57.4980  -14.2800 C.2   153  ILE153      0.2616
     82  O        -39.9530  -58.0330  -13.8630 O.2   153  ILE153     -0.2715
     83  CB       -37.6200  -59.5470  -14.7310 C.3   153  ILE153      0.0290
     84  CG1      -36.2950  -60.2730  -14.4710 C.3   153  ILE153      0.0022
     85  CG2      -37.9150  -59.4170  -16.2210 C.3   153  ILE153      0.0023
     86  CD1      -35.0680  -59.4600  -14.8260 C.3   153  ILE153      0.0001
     87  N        -38.9310  -56.3340  -14.9230 N.am  154  THR154     -0.1951
     88  CA       -40.1640  -55.6030  -15.1920 C.3   154  THR154      0.1897
     89  C        -40.9780  -56.4020  -16.2000 C.2   154  THR154      0.2313
     90  O        -40.4560  -56.8210  -17.2340 O.2   154  THR154     -0.2863
     91  CB       -39.8680  -54.1970  -15.7780 C.3   154  THR154      0.1794
     92  OG1      -39.0670  -53.4550  -14.8550 O.3   154  THR154     -0.2208
     93  CG2      -41.1590  -53.4360  -16.0440 C.3   154  THR154      0.0378
     94  N        -43.5610  -53.6630   -3.4320 N.3   192  LYS192     -0.1245
     95  CA       -42.6320  -52.5520   -3.2470 C.3   192  LYS192      0.1561
     96  C        -43.2540  -51.2210   -2.8560 C.2   192  LYS192      0.2260
     97  O        -44.4680  -51.1000   -2.7480 O.2   192  LYS192     -0.2867
     98  CB       -41.7510  -52.3930   -4.4900 C.3   192  LYS192      0.0271
     99  CG       -42.4860  -52.4270   -5.7990 C.3   192  LYS192      0.0035
    100  CD       -41.5190  -52.6110   -6.9540 C.3   192  LYS192      0.0206
    101  CE       -42.2500  -52.4860   -8.2810 C.3   192  LYS192      0.1093
    102  NZ       -43.4790  -53.3310   -8.3260 N.3   192  LYS192     -0.1314
    103  N        -44.6590  -47.8540   -7.9400 N.3   195  LEU195     -0.1245
    104  CA       -44.7750  -48.5030   -9.2490 C.3   195  LEU195      0.1561
    105  C        -45.5360  -49.8100   -9.0380 C.2   195  LEU195      0.2260
    106  O        -45.2190  -50.8320   -9.6370 O.2   195  LEU195     -0.2867
    107  CB       -43.3910  -48.8030   -9.8500 C.3   195  LEU195      0.0270
    108  CG       -42.4480  -47.6350  -10.1810 C.3   195  LEU195      0.0019
    109  CD1      -41.2150  -48.1720  -10.8890 C.3   195  LEU195      0.0001
    110  CD2      -43.1490  -46.6110  -11.0640 C.3   195  LEU195      0.0001
    111  N        -42.7980  -56.6540  -11.1000 N.3   200  THR200     -0.1218
    112  CA       -41.3880  -57.0270  -11.2040 C.3   200  THR200      0.1862
    113  C        -41.2130  -58.3020  -10.3890 C.2   200  THR200      0.2287
    114  O        -41.6310  -58.3670   -9.2310 O.2   200  THR200     -0.2866
    115  CB       -40.4580  -55.9380  -10.6220 C.3   200  THR200      0.1770
    116  OG1      -40.6900  -55.8050   -9.2120 O.3   200  THR200     -0.2211
    117  CG2      -40.7280  -54.6090  -11.2920 C.3   200  THR200      0.0375
    118  N        -37.6160  -44.3180   -6.6280 N.3   349  VAL349     -0.1245
    119  CA       -37.0260  -45.4130   -7.3890 C.3   349  VAL349      0.1561
    120  C        -36.2390  -45.0010   -8.6290 C.2   349  VAL349      0.2260
    121  O        -35.3940  -45.7660   -9.0930 O.2   349  VAL349     -0.2867
    122  CB       -38.0950  -46.4830   -7.7790 C.3   349  VAL349      0.0252
    123  CG1      -38.9910  -45.9730   -8.9020 C.3   349  VAL349      0.0019
    124  CG2      -37.4070  -47.7740   -8.1790 C.3   349  VAL349      0.0019
    125  N        -32.6400  -45.3220   -8.4490 N.3   352  ILE352     -0.1231
    126  CA       -32.1150  -46.6730   -8.3350 C.3   352  ILE352      0.1692
    127  C        -32.0060  -47.4720   -9.6360 C.2   352  ILE352      0.2592
    128  O        -30.9150  -47.9140  -10.0060 O.2   352  ILE352     -0.2718
    129  CB       -32.9720  -47.4950   -7.3480 C.3   352  ILE352      0.0266
    130  CG1      -32.9980  -46.8070   -5.9850 C.3   352  ILE352      0.0019
    131  CG2      -32.4200  -48.9000   -7.2130 C.3   352  ILE352      0.0020
    132  CD1      -34.0040  -47.4190   -5.0090 C.3   352  ILE352      0.0001
    133  N        -33.1280  -47.6700  -10.3260 N.am  353  TYR353     -0.1962
    134  CA       -33.1010  -48.4620  -11.5500 C.3   353  TYR353      0.1771
    135  C        -32.5300  -47.7160  -12.7490 C.2   353  TYR353      0.2619
    136  O        -32.4600  -46.4920  -12.7570 O.2   353  TYR353     -0.2715
    137  CB       -34.5040  -49.0410  -11.8470 C.3   353  TYR353      0.0574
    138  CG       -35.4510  -48.1640  -12.6270 C.ar  353  TYR353     -0.0198
    139  CD1      -36.2980  -47.2690  -11.9760 C.ar  353  TYR353     -0.0009
    140  CD2      -35.5060  -48.2340  -14.0170 C.ar  353  TYR353     -0.0009
    141  CE1      -37.1820  -46.4580  -12.6890 C.ar  353  TYR353      0.0417
    142  CE2      -36.3850  -47.4360  -14.7450 C.ar  353  TYR353      0.0417
    143  CZ       -37.2200  -46.5460  -14.0750 C.ar  353  TYR353      0.1957
    144  OH       -38.0810  -45.7400  -14.7930 O.3   353  TYR353     -0.2866
    145  N        -32.0800  -48.4840  -13.7370 N.am  354  GLU354     -0.1963
    146  CA       -31.4830  -47.9560  -14.9590 C.3   354  GLU354      0.1733
    147  C        -30.1410  -47.3110  -14.6180 C.2   354  GLU354      0.2617
    148  O        -29.6680  -46.4130  -15.3240 O.2   354  GLU354     -0.2715
    149  CB       -32.4240  -46.9350  -15.5990 C.3   354  GLU354      0.0429
    150  CG       -32.2490  -46.7580  -17.0970 C.3   354  GLU354      0.1163
    151  CD       -32.6650  -47.9870  -17.8920 C.2   354  GLU354      0.3649
    152  OE1      -33.7230  -48.5800  -17.5860 O.co2 354  GLU354     -0.2457
    153  OE2      -31.9390  -48.3560  -18.8380 O.co2 354  GLU354     -0.2457
    154  N        -29.5270  -47.7920  -13.5360 N.am  355  GLY355     -0.1940
    155  CA       -28.2490  -47.2570  -13.0910 C.3   355  GLY355      0.2014
    156  C        -28.4420  -46.3240  -11.9020 C.2   355  GLY355      0.2639
    157  O        -28.9570  -45.2130  -12.0570 O.2   355  GLY355     -0.2714
    158  N        -28.0420  -46.7740  -10.7130 N.am  356  THR356     -0.1950
    159  CA       -28.1860  -45.9620   -9.5100 C.3   356  THR356      0.1897
    160  C        -27.4720  -44.6220   -9.6590 C.2   356  THR356      0.2313
    161  O        -26.6110  -44.4550  -10.5340 O.2   356  THR356     -0.2863
    162  CB       -27.5860  -46.6520   -8.2700 C.3   356  THR356      0.1794
    163  OG1      -26.1830  -46.8400   -8.4750 O.3   356  THR356     -0.2208
    164  CG2      -28.2550  -47.9770   -8.0100 C.3   356  THR356      0.0378
    165  N        -25.2690  -43.4490   -7.7950 N.3   358  GLU358     -0.1231
    166  CA       -23.8380  -43.6740   -7.5810 C.3   358  GLU358      0.1699
    167  C        -23.1860  -44.0980   -8.8930 C.2   358  GLU358      0.2592
    168  O        -22.1480  -43.5500   -9.2830 O.2   358  GLU358     -0.2718
    169  CB       -23.5940  -44.7490   -6.5200 C.3   358  GLU358      0.0402
    170  CG       -23.9440  -44.3390   -5.0960 C.3   358  GLU358      0.1161
    171  CD       -25.4030  -43.9500   -4.9320 C.2   358  GLU358      0.3649
    172  OE1      -26.2930  -44.7690   -5.2570 O.co2 358  GLU358     -0.2457
    173  OE2      -25.6590  -42.8180   -4.4690 O.co2 358  GLU358     -0.2457
    174  N        -23.7950  -45.0680   -9.5780 N.am  359  ILE359     -0.1980
    175  CA       -23.2550  -45.5300  -10.8500 C.3   359  ILE359      0.1595
    176  C        -23.2830  -44.4160  -11.9090 C.2   359  ILE359      0.2287
    177  O        -22.3460  -44.2860  -12.7050 O.2   359  ILE359     -0.2864
    178  CB       -24.0070  -46.8000  -11.3560 C.3   359  ILE359      0.0276
    179  CG1      -23.2930  -48.0620  -10.8550 C.3   359  ILE359      0.0022
    180  CG2      -24.0420  -46.8390  -12.8600 C.3   359  ILE359      0.0022
    181  CD1      -23.3030  -48.2380   -9.3290 C.3   359  ILE359      0.0001
    182  N        -20.2090  -42.4800  -11.4100 N.3   362  LEU362     -0.1245
    183  CA       -18.9990  -43.1350  -11.8900 C.3   362  LEU362      0.1561
    184  C        -18.8870  -42.9490  -13.3990 C.2   362  LEU362      0.2260
    185  O        -17.8160  -42.6380  -13.9130 O.2   362  LEU362     -0.2867
    186  CB       -19.0210  -44.6310  -11.5680 C.3   362  LEU362      0.0270
    187  CG       -18.7310  -45.0330  -10.1190 C.3   362  LEU362      0.0019
    188  CD1      -18.9520  -46.5320   -9.9500 C.3   362  LEU362      0.0001
    189  CD2      -17.2980  -44.6520   -9.7600 C.3   362  LEU362      0.0001
@<TRIPOS>BOND
     1    11    10    2
     2    10     9    1
     3    23    21   ar
     4    23    25   ar
     5    21    20   ar
     6     8     9    1
     7     9    12    1
     8    25    24   ar
     9    20    19    1
    10    20    22   ar
    11    19    16    1
    12    16    15    1
    13    16    17    1
    14    13    12    1
    15    12    14    1
    16    24    22   ar
    17    17    18    2
    18   153   151   ar
    19     4     3    2
    20     3     2    1
    21   151   152   ar
    22   151   150    1
    23    33    31    1
    24    32    31    1
    25    90    89    2
    26     1     2    1
    27   150   149    1
    28     2     5    1
    29    30    31    1
    30    30    27    1
    31    26    27    1
    32    27    28    1
    33    85    83    1
    34    89    88    1
    35    93    91    1
    36    91    88    1
    37    91    92    1
    38   149   146    1
    39     5     7    1
    40     5     6    1
    41   148   147    2
    42    88    87    1
    43    28    29    2
    44    28    34   am
    45   146   147    1
    46   146   145    1
    47    87    81   am
    48    86    84    1
    49   144   143    1
    50   142   143   ar
    51   142   140   ar
    52    83    84    1
    53    83    80    1
    54   147   154   am
    55    81    80    1
    56    81    82    2
    57    34    35    1
    58    80    79    1
    59   143   141   ar
    60    49    47   ar
    61   140   138   ar
    62   185   184    2
    63   145   135   am
    64   154   155    1
    65   184   183    1
    66   155   156    1
    67   180   178    1
    68    35    36    1
    69    35    38    1
    70    47    46    1
    71    47    48   ar
    72   136   135    2
    73   135   134    1
    74   177   176    2
    75    79    67   am
    76   141   139   ar
    77    37    36    2
    78    39    38    1
    79   138   139   ar
    80   138   137    1
    81    68    67    2
    82    62    61    2
    83    46    45    1
    84    36    41   am
    85    38    40    1
    86   157   156    2
    87    67    66    1
    88    58    57    2
    89   176   175    1
    90   156   158   am
    91   183   186    1
    92   183   182    1
    93   137   134    1
    94   186   187    1
    95   134   133    1
    96   178   179    1
    97   178   175    1
    98    61    60    1
    99   117   115    1
   100    41    42    1
   101   112   111    1
   102   112   115    1
   103   112   113    1
   104   110   108    1
   105    45    42    1
   106   109   108    1
   107   179   181    1
   108   175   174    1
   109    57    59   am
   110    57    56    1
   111   158   159    1
   112    60    59    1
   113    60    63    1
   114   115   116    1
   115    66    65    1
   116    66    69    1
   117   161   160    2
   118    42    43    1
   119    53    52    2
   120   113   114    2
   121    54    51    1
   122   133   127   am
   123   108   107    1
   124    69    70    1
   125   187   188    1
   126   187   189    1
   127   128   127    2
   128    56    55    1
   129   107   104    1
   130    52    55   am
   131    52    51    1
   132   160   159    1
   133   106   105    2
   134   127   126    1
   135    63    64    1
   136   174   167   am
   137   159   162    1
   138   168   167    2
   139   104   105    1
   140   104   103    1
   141    51    50    1
   142   121   120    2
   143    43    44    2
   144   123   122    1
   145   167   166    1
   146    70    71   ar
   147    70    72   ar
   148   120   119    1
   149   163   162    1
   150   125   126    1
   151   126   129    1
   152   102   101    1
   153   101   100    1
   154   162   164    1
   155   124   122    1
   156    75    72   ar
   157    75    77   ar
   158    71    73   ar
   159    72    74   ar
   160   165   166    1
   161   122   119    1
   162   166   169    1
   163   119   118    1
   164   129   131    1
   165   129   130    1
   166   100    99    1
   167    77    78   ar
   168    73    74   ar
   169   169   170    1
   170    74    76   ar
   171   130   132    1
   172    99    98    1
   173    78    76   ar
   174   172   171   ar
   175   170   171    1
   176   171   173   ar
   177    98    95    1
   178    94    95    1
   179    95    96    1
   180    96    97    2
