@<TRIPOS>MOLECULE
tmp/2dvnA00.pdb
 160 154 0 0 0
SMALL
GASTEIGER

@<TRIPOS>ATOM
      1  N         24.9910   71.7930  102.8430 N.3     9  ASN9       -0.1240
      2  CA        26.4340   71.7130  103.0520 C.3     9  ASN9        0.1653
      3  C         26.9780   70.3770  102.5410 C.2     9  ASN9        0.2266
      4  O         26.7920   69.3340  103.1730 O.2     9  ASN9       -0.2867
      5  CB        26.7500   71.8670  104.5450 C.3     9  ASN9        0.1155
      6  CG        28.2250   72.0950  104.8090 C.2     9  ASN9        0.2627
      7  OD1       29.0760   71.3500  104.3280 O.2     9  ASN9       -0.2716
      8  ND2       28.5330   73.1310  105.5820 N.am    9  ASN9       -0.0877
      9  N         29.1030   68.3110  105.0520 N.3    12  LYS12      -0.1245
     10  CA        28.3550   67.5550  106.0500 C.3    12  LYS12       0.1561
     11  C         27.8160   66.2820  105.4080 C.2    12  LYS12       0.2260
     12  O         27.8070   65.2190  106.0280 O.2    12  LYS12      -0.2867
     13  CB        27.1740   68.3630  106.5900 C.3    12  LYS12       0.0271
     14  CG        27.5370   69.5900  107.4030 C.3    12  LYS12       0.0035
     15  CD        26.2760   70.1870  107.9980 C.3    12  LYS12       0.0206
     16  CE        26.5310   71.5090  108.6940 C.3    12  LYS12       0.1093
     17  NZ        25.2780   72.0110  109.3230 N.3    12  LYS12      -0.1314
     18  N         16.5570   79.1500  110.7590 N.3    36  GLU36      -0.1245
     19  CA        17.5310   78.8360  111.7930 C.3    36  GLU36       0.1567
     20  C         17.3990   79.9900  112.7740 C.2    36  GLU36       0.2260
     21  O         17.8870   81.0930  112.5310 O.2    36  GLU36      -0.2867
     22  CB        18.9320   78.7690  111.1840 C.3    36  GLU36       0.0388
     23  CG        19.1480   77.5030  110.3650 C.3    36  GLU36       0.1160
     24  CD        20.3010   77.6090  109.3910 C.2    36  GLU36       0.3649
     25  OE1       20.6580   76.5760  108.7880 O.co2  36  GLU36      -0.2457
     26  OE2       20.8420   78.7210  109.2170 O.co2  36  GLU36      -0.2457
     27  N         21.2350   69.0300  110.6920 N.3    64  GLU64      -0.1231
     28  CA        22.4010   69.1710  111.5450 C.3    64  GLU64       0.1699
     29  C         22.7600   70.6330  111.7200 C.2    64  GLU64       0.2592
     30  O         22.8000   71.3910  110.7510 O.2    64  GLU64      -0.2718
     31  CB        23.5930   68.4100  110.9390 C.3    64  GLU64       0.0402
     32  CG        24.7120   68.0900  111.9370 C.3    64  GLU64       0.1161
     33  CD        25.8490   69.1100  111.9540 C.2    64  GLU64       0.3649
     34  OE1       25.6580   70.2630  111.5130 O.co2  64  GLU64      -0.2457
     35  OE2       26.9450   68.7530  112.4340 O.co2  64  GLU64      -0.2457
     36  N         23.0000   71.0260  112.9670 N.am   65  ASP65      -0.1960
     37  CA        23.4060   72.3950  113.2570 C.3    65  ASP65       0.1840
     38  C         24.6670   72.2650  114.0940 C.2    65  ASP65       0.2623
     39  O         24.6840   71.5680  115.1100 O.2    65  ASP65      -0.2715
     40  CB        22.3220   73.1480  114.0320 C.3    65  ASP65       0.1450
     41  CG        22.4160   74.6560  113.8380 C.2    65  ASP65       0.3671
     42  OD1       22.2710   75.1110  112.6840 O.co2  65  ASP65      -0.2456
     43  OD2       22.6350   75.3830  114.8340 O.co2  65  ASP65      -0.2456
     44  N         25.7280   72.9350  113.6640 N.am   66  SER66      -0.1936
     45  CA        27.0030   72.8400  114.3530 C.3    66  SER66       0.2055
     46  C         27.6890   74.1900  114.5030 C.2    66  SER66       0.2643
     47  O         27.2910   75.1800  113.8890 O.2    66  SER66      -0.2714
     48  CB        27.9050   71.8660  113.5860 C.3    66  SER66       0.2130
     49  OG        27.7360   72.0180  112.1840 O.3    66  SER66      -0.2179
     50  N         28.7210   74.2320  115.3330 N.am   67  GLY67      -0.1954
     51  CA        29.4260   75.4820  115.5170 C.3    67  GLY67       0.1869
     52  C         30.7320   75.3600  116.2690 C.2    67  GLY67       0.2309
     53  O         30.9960   74.3490  116.9210 O.2    67  GLY67      -0.2863
     54  N         26.7410   79.4950  117.9300 N.3    79  VAL79      -0.1245
     55  CA        25.5280   79.2650  117.1580 C.3    79  VAL79       0.1561
     56  C         25.5440   80.0440  115.8440 C.2    79  VAL79       0.2260
     57  O         24.8820   79.6620  114.8780 O.2    79  VAL79      -0.2867
     58  CB        24.2790   79.6660  117.9830 C.3    79  VAL79       0.0252
     59  CG1       23.0150   79.5250  117.1480 C.3    79  VAL79       0.0019
     60  CG2       24.1880   78.7920  119.2210 C.3    79  VAL79       0.0019
     61  N         28.2320   80.5680  113.8750 N.3    81  SER81      -0.1202
     62  CA        29.4540   80.2450  113.1550 C.3    81  SER81       0.2020
     63  C         29.3230   80.4890  111.6500 C.2    81  SER81       0.2619
     64  O         30.2750   80.9220  111.0130 O.2    81  SER81      -0.2717
     65  CB        29.8410   78.7870  113.4190 C.3    81  SER81       0.2103
     66  OG        30.2370   78.6150  114.7730 O.3    81  SER81      -0.2182
     67  N         28.1480   80.2150  111.0870 N.am   82  SER82      -0.1951
     68  CA        27.9480   80.4190  109.6500 C.3    82  SER82       0.1924
     69  C         28.0770   81.8830  109.2450 C.2    82  SER82       0.2314
     70  O         28.8520   82.2170  108.3490 O.2    82  SER82      -0.2863
     71  CB        26.5790   79.8880  109.2130 C.3    82  SER82       0.2116
     72  OG        26.3660   80.1290  107.8260 O.3    82  SER82      -0.2180
     73  N         31.6250   83.1260  109.6330 N.3    85  TYR85      -0.1241
     74  CA        32.4950   82.5460  108.6160 C.3    85  TYR85       0.1605
     75  C         32.3480   83.2850  107.2840 C.2    85  TYR85       0.2264
     76  O         33.3360   83.5640  106.5980 O.2    85  TYR85      -0.2867
     77  CB        32.1550   81.0620  108.4230 C.3    85  TYR85       0.0534
     78  CG        32.9690   80.3720  107.3490 C.ar   85  TYR85      -0.0201
     79  CD1       34.3560   80.2840  107.4510 C.ar   85  TYR85      -0.0009
     80  CD2       32.3510   79.8120  106.2280 C.ar   85  TYR85      -0.0009
     81  CE1       35.1130   79.6590  106.4650 C.ar   85  TYR85       0.0417
     82  CE2       33.0990   79.1810  105.2310 C.ar   85  TYR85       0.0417
     83  CZ        34.4800   79.1120  105.3590 C.ar   85  TYR85       0.1957
     84  OH        35.2330   78.5100  104.3790 O.3    85  TYR85      -0.2866
     85  N         34.3440   72.2210  119.1690 N.3   107  PHE107     -0.1241
     86  CA        33.4240   72.1330  118.0590 C.3   107  PHE107      0.1605
     87  C         32.2830   71.2840  118.5830 C.2   107  PHE107      0.2264
     88  O         32.5070   70.3380  119.3400 O.2   107  PHE107     -0.2867
     89  CB        34.0810   71.4310  116.8700 C.3   107  PHE107      0.0534
     90  CG        34.2100   72.3000  115.6600 C.ar  107  PHE107     -0.0203
     91  CD1       33.0820   72.8790  115.0900 C.ar  107  PHE107     -0.0042
     92  CD2       35.4560   72.5510  115.0940 C.ar  107  PHE107     -0.0042
     93  CE1       33.1900   73.6980  113.9730 C.ar  107  PHE107     -0.0003
     94  CE2       35.5720   73.3730  113.9690 C.ar  107  PHE107     -0.0003
     95  CZ        34.4340   73.9440  113.4140 C.ar  107  PHE107     -0.0000
     96  N         36.0430   71.5370  105.2230 N.3   140  PHE140     -0.1227
     97  CA        35.3570   72.7820  104.9010 C.3   140  PHE140      0.1736
     98  C         35.3300   73.7460  106.0850 C.2   140  PHE140      0.2596
     99  O         35.8440   73.4410  107.1590 O.2   140  PHE140     -0.2718
    100  CB        33.9220   72.4640  104.4690 C.3   140  PHE140      0.0547
    101  CG        33.0640   71.8880  105.5680 C.ar  140  PHE140     -0.0202
    102  CD1       32.2830   72.7200  106.3680 C.ar  140  PHE140     -0.0042
    103  CD2       33.0240   70.5130  105.7940 C.ar  140  PHE140     -0.0042
    104  CE1       31.4690   72.1860  107.3760 C.ar  140  PHE140     -0.0003
    105  CE2       32.2160   69.9710  106.7980 C.ar  140  PHE140     -0.0003
    106  CZ        31.4380   70.8070  107.5870 C.ar  140  PHE140     -0.0000
    107  N         34.7350   74.9150  105.8670 N.am  141  GLY141     -0.1942
    108  CA        34.6180   75.9100  106.9180 C.3   141  GLY141      0.2014
    109  C         35.8740   76.2200  107.7100 C.2   141  GLY141      0.2639
    110  O         36.9170   76.5430  107.1450 O.2   141  GLY141     -0.2714
    111  N         35.7570   76.1220  109.0310 N.am  142  TYR142     -0.1959
    112  CA        36.8590   76.4050  109.9450 C.3   142  TYR142      0.1771
    113  C         37.9090   75.2970  110.0500 C.2   142  TYR142      0.2619
    114  O         38.8280   75.4080  110.8580 O.2   142  TYR142     -0.2715
    115  CB        36.3100   76.6730  111.3510 C.3   142  TYR142      0.0574
    116  CG        35.3700   77.8570  111.4690 C.ar  142  TYR142     -0.0198
    117  CD1       35.8510   79.1280  111.7870 C.ar  142  TYR142     -0.0009
    118  CD2       33.9970   77.7020  111.2790 C.ar  142  TYR142     -0.0009
    119  CE1       34.9850   80.2160  111.9170 C.ar  142  TYR142      0.0417
    120  CE2       33.1250   78.7830  111.4080 C.ar  142  TYR142      0.0417
    121  CZ        33.6250   80.0340  111.7280 C.ar  142  TYR142      0.1957
    122  OH        32.7680   81.0990  111.8820 O.3   142  TYR142     -0.2866
    123  N         37.7910   74.2360  109.2530 N.am  143  ASP143     -0.1971
    124  CA        38.7630   73.1470  109.3440 C.3   143  ASP143      0.1709
    125  C         40.2360   73.5640  109.2690 C.2   143  ASP143      0.2293
    126  O         41.0740   72.9820  109.9530 O.2   143  ASP143     -0.2864
    127  CB        38.4780   72.0660  108.2900 C.3   143  ASP143      0.1436
    128  CG        37.3100   71.1710  108.6760 C.2   143  ASP143      0.3671
    129  OD1       36.9200   71.1770  109.8670 O.co2 143  ASP143     -0.2456
    130  OD2       36.7910   70.4540  107.7950 O.co2 143  ASP143     -0.2456
    131  N         39.1760   62.6300  110.1040 N.3   163  LYS163     -0.1245
    132  CA        38.3570   63.6650  110.7250 C.3   163  LYS163      0.1561
    133  C         37.1570   63.0550  111.4440 C.2   163  LYS163      0.2260
    134  O         36.8780   63.3990  112.5960 O.2   163  LYS163     -0.2867
    135  CB        37.8730   64.6750  109.6800 C.3   163  LYS163      0.0271
    136  CG        37.0120   65.7800  110.2770 C.3   163  LYS163      0.0035
    137  CD        36.5030   66.7360  109.2120 C.3   163  LYS163      0.0206
    138  CE        35.6450   67.8210  109.8530 C.3   163  LYS163      0.1093
    139  NZ        34.9550   68.6780  108.8490 N.3   163  LYS163     -0.1314
    140  N         33.5070   66.3190  116.1830 N.3   168  HIS168     -0.1226
    141  CA        32.2520   66.5160  116.8890 C.3   168  HIS168      0.1752
    142  C         31.1300   65.8170  116.1240 C.2   168  HIS168      0.2595
    143  O         30.2090   65.2680  116.7280 O.2   168  HIS168     -0.2718
    144  CB        31.9500   68.0110  116.9710 C.3   168  HIS168      0.0759
    145  CG        32.0890   68.7250  115.6600 C.ar  168  HIS168      0.0818
    146  ND1       33.2480   68.6890  114.9130 N.ar  168  HIS168     -0.2268
    147  CD2       31.2190   69.4970  114.9660 C.ar  168  HIS168      0.1154
    148  CE1       33.0860   69.4070  113.8170 C.ar  168  HIS168      0.1986
    149  NE2       31.8650   69.9090  113.8230 N.ar  168  HIS168     -0.2212
    150  N         31.2090   65.8540  114.7930 N.am  169  ARG169     -0.1980
    151  CA        30.1950   65.2330  113.9400 C.3   169  ARG169      0.1597
    152  C         30.2870   63.7110  114.0160 C.2   169  ARG169      0.2287
    153  O         29.2660   63.0250  114.0610 O.2   169  ARG169     -0.2864
    154  CB        30.3560   65.7250  112.4900 C.3   169  ARG169      0.0334
    155  CG        29.3040   65.1960  111.5080 C.3   169  ARG169      0.0492
    156  CD        29.2120   66.0720  110.2510 C.3   169  ARG169      0.2205
    157  NE        28.8670   67.4360  110.6340 N.pl3 169  ARG169     -0.0865
    158  CZ        29.7130   68.4600  110.6360 C.cat 169  ARG169      0.5346
    159  NH1       30.9710   68.3000  110.2420 N.pl3 169  ARG169      0.1354
    160  NH2       29.3170   69.6340  111.1080 N.pl3 169  ARG169      0.1354
@<TRIPOS>BOND
     1     3     2    1
     2     3     4    2
     3     1     2    1
     4     2     5    1
     5     7     6    2
     6    84    83    1
     7   100    97    1
     8   100   101    1
     9     5     6    1
    10     6     8   am
    11    97    96    1
    12    97    98    1
    13     9    10    1
    14    82    83   ar
    15    82    80   ar
    16    83    81   ar
    17    11    12    2
    18    11    10    1
    19   101   103   ar
    20   101   102   ar
    21   103   105   ar
    22   107    98   am
    23   107   108    1
    24    10    13    1
    25    98    99    2
    26    80    78   ar
    27   102   104   ar
    28    81    79   ar
    29    13    14    1
    30    76    75    2
    31   105   106   ar
    32   108   109    1
    33   110   109    2
    34    75    74    1
    35    78    79   ar
    36    78    77    1
    37   104   106   ar
    38    14    15    1
    39   109   111   am
    40   130   128   ar
    41    72    71    1
    42    15    16    1
    43   127   128    1
    44   127   124    1
    45    70    69    2
    46    77    74    1
    47    74    73    1
    48   128   129   ar
    49    16    17    1
    50    25    24   ar
    51   139   138    1
    52   111   112    1
    53   137   138    1
    54   137   136    1
    55    71    68    1
    56    26    24   ar
    57    69    68    1
    58   123   124    1
    59   123   113   am
    60   125   124    1
    61   125   126    2
    62    24    23    1
    63    68    67    1
    64   135   136    1
    65   135   132    1
    66   112   113    1
    67   112   115    1
    68   113   114    2
    69   131   132    1
    70   159   158    1
    71   156   157    1
    72   156   155    1
    73    23    22    1
    74   157   158    2
    75   158   160    1
    76    27    28    1
    77   132   133    1
    78    30    29    2
    79    18    19    1
    80    31    28    1
    81    31    32    1
    82    64    63    2
    83    67    63   am
    84    22    19    1
    85   118   120   ar
    86   118   116   ar
    87   115   116    1
    88   120   121   ar
    89   133   134    2
    90   116   117   ar
    91   155   154    1
    92    34    33   ar
    93    28    29    1
    94    63    62    1
    95    29    36   am
    96   121   122    1
    97   121   119   ar
    98   117   119   ar
    99    19    20    1
   100    32    33    1
   101    33    35   ar
   102    49    48    1
   103   154   151    1
   104    21    20    2
   105    42    41   ar
   106    36    37    1
   107    62    65    1
   108    62    61    1
   109    37    40    1
   110    37    38    1
   111    95    94   ar
   112    95    93   ar
   113    65    66    1
   114    48    45    1
   115    44    38   am
   116    44    45    1
   117   148   149   ar
   118   148   146   ar
   119   149   147   ar
   120    41    40    1
   121    41    43   ar
   122    47    46    2
   123   151   152    1
   124   151   150    1
   125    94    92   ar
   126    93    91   ar
   127   152   153    2
   128    38    39    2
   129    45    46    1
   130    46    50   am
   131   150   142   am
   132    57    56    2
   133   146   145   ar
   134   147   145   ar
   135    91    90   ar
   136    92    90   ar
   137    50    51    1
   138    51    52    1
   139    90    89    1
   140   145   144    1
   141    56    55    1
   142   142   143    2
   143   142   141    1
   144   140   141    1
   145    52    53    2
   146    89    86    1
   147   141   144    1
   148    59    58    1
   149    55    54    1
   150    55    58    1
   151    58    60    1
   152    86    87    1
   153    86    85    1
   154    87    88    2
