@<TRIPOS>MOLECULE
tmp/2dvoA00.pdb
 202 196 0 0 0
SMALL
GASTEIGER

@<TRIPOS>ATOM
      1  N         54.3650   52.5990   33.0630 N.3     6  ILE6       -0.1231
      2  CA        52.9790   52.7140   32.6150 C.3     6  ILE6        0.1692
      3  C         52.5060   54.1450   32.8480 C.2     6  ILE6        0.2593
      4  O         52.2460   54.5360   33.9870 O.2     6  ILE6       -0.2718
      5  CB        52.0530   51.7700   33.4120 C.3     6  ILE6        0.0266
      6  CG1       52.6870   50.3790   33.5230 C.3     6  ILE6        0.0019
      7  CG2       50.6840   51.7020   32.7530 C.3     6  ILE6        0.0020
      8  CD1       52.8280   49.6550   32.2180 C.3     6  ILE6        0.0001
      9  N         52.4090   54.9240   31.7750 N.am    7  THR7       -0.1939
     10  CA        51.9490   56.3090   31.8630 C.3     7  THR7        0.2028
     11  C         51.5800   56.8560   30.4890 C.2     7  THR7        0.2643
     12  O         52.0800   56.3800   29.4670 O.2     7  THR7       -0.2714
     13  CB        53.0270   57.2360   32.4700 C.3     7  THR7        0.1808
     14  OG1       52.5080   58.5700   32.5610 O.3     7  THR7       -0.2208
     15  CG2       54.2690   57.2550   31.5960 C.3     7  THR7        0.0379
     16  N         50.7010   57.8500   30.4670 N.am    8  SER8       -0.1935
     17  CA        50.2950   58.4730   29.2150 C.3     8  SER8        0.2055
     18  C         50.8740   59.8870   29.1570 C.2     8  SER8        0.2643
     19  O         50.5380   60.6670   28.2690 O.2     8  SER8       -0.2714
     20  CB        48.7720   58.5520   29.1250 C.3     8  SER8        0.2130
     21  OG        48.2720   59.5660   29.9850 O.3     8  SER8       -0.2179
     22  N         51.7480   60.2110   30.1060 N.am    9  ASN9       -0.1971
     23  CA        52.3460   61.5460   30.1750 C.3     9  ASN9        0.1688
     24  C         53.7960   61.5350   29.6770 C.2     9  ASN9        0.2292
     25  O         54.7090   61.1550   30.4110 O.2     9  ASN9       -0.2864
     26  CB        52.2950   62.0500   31.6230 C.3     9  ASN9        0.1181
     27  CG        52.6050   63.5330   31.7440 C.2     9  ASN9        0.2629
     28  OD1       53.6390   64.0050   31.2700 O.2     9  ASN9       -0.2716
     29  ND2       51.7090   64.2740   32.3930 N.am    9  ASN9       -0.0877
     30  N         56.4810   63.1460   31.9340 N.3    12  LYS12      -0.1245
     31  CA        57.0130   62.3300   33.0280 C.3    12  LYS12       0.1561
     32  C         58.0740   61.3660   32.5040 C.2    12  LYS12       0.2260
     33  O         59.1140   61.1620   33.1280 O.2    12  LYS12      -0.2867
     34  CB        55.9170   61.4800   33.6770 C.3    12  LYS12       0.0271
     35  CG        54.8060   62.2010   34.4030 C.3    12  LYS12       0.0035
     36  CD        53.9050   61.1380   35.0410 C.3    12  LYS12       0.0206
     37  CE        52.7020   61.7190   35.7680 C.3    12  LYS12       0.1093
     38  NZ        51.9480   60.6150   36.4540 N.3    12  LYS12      -0.1314
     39  N         46.2430   52.0060   29.9620 N.3    33  GLU33      -0.1231
     40  CA        45.3480   52.7150   30.8590 C.3    33  GLU33       0.1699
     41  C         44.9120   51.8430   32.0240 C.2    33  GLU33       0.2592
     42  O         44.5840   50.6690   31.8530 O.2    33  GLU33      -0.2718
     43  CB        44.1260   53.2300   30.0980 C.3    33  GLU33       0.0402
     44  CG        44.4260   54.4770   29.2930 C.3    33  GLU33       0.1161
     45  CD        44.8390   55.6390   30.1780 C.2    33  GLU33       0.3649
     46  OE1       45.4760   56.5890   29.6670 O.co2  33  GLU33      -0.2457
     47  OE2       44.5170   55.6020   31.3860 O.co2  33  GLU33      -0.2457
     48  N         44.9300   52.4250   33.2150 N.am   34  TYR34      -0.1976
     49  CA        44.5330   51.7070   34.4130 C.3    34  TYR34       0.1639
     50  C         43.6690   52.6220   35.2690 C.2    34  TYR34       0.2290
     51  O         43.7500   53.8420   35.1630 O.2    34  TYR34      -0.2864
     52  CB        45.7720   51.2470   35.1920 C.3    34  TYR34       0.0560
     53  CG        46.6450   52.3680   35.7190 C.ar   34  TYR34      -0.0198
     54  CD1       46.4860   52.8580   37.0140 C.ar   34  TYR34      -0.0009
     55  CD2       47.6330   52.9410   34.9160 C.ar   34  TYR34      -0.0009
     56  CE1       47.2980   53.8970   37.4990 C.ar   34  TYR34       0.0417
     57  CE2       48.4440   53.9710   35.3850 C.ar   34  TYR34       0.0417
     58  CZ        48.2750   54.4460   36.6760 C.ar   34  TYR34       0.1957
     59  OH        49.0830   55.4670   37.1340 O.3    34  TYR34      -0.2866
     60  N         42.4900   54.9830   37.9130 N.3    36  GLU36      -0.1245
     61  CA        43.1200   55.9090   38.8350 C.3    36  GLU36       0.1567
     62  C         41.9750   56.4170   39.6850 C.2    36  GLU36       0.2260
     63  O         41.2250   57.3140   39.2850 O.2    36  GLU36      -0.2867
     64  CB        43.8130   57.0300   38.0690 C.3    36  GLU36       0.0388
     65  CG        45.0280   56.5140   37.3230 C.3    36  GLU36       0.1160
     66  CD        45.8910   57.6170   36.7680 C.2    36  GLU36       0.3649
     67  OE1       46.0300   58.6580   37.4480 O.co2  36  GLU36      -0.2457
     68  OE2       46.4410   57.4300   35.6600 O.co2  36  GLU36      -0.2457
     69  N         53.3310   56.3990   38.2290 N.3    64  GLU64      -0.1231
     70  CA        53.5670   57.5560   39.0680 C.3    64  GLU64       0.1699
     71  C         52.3270   58.4200   39.1290 C.2    64  GLU64       0.2592
     72  O         51.6120   58.5580   38.1420 O.2    64  GLU64      -0.2718
     73  CB        54.7450   58.3720   38.5420 C.3    64  GLU64       0.0402
     74  CG        55.2310   59.4180   39.5280 C.3    64  GLU64       0.1161
     75  CD        54.8100   60.8290   39.1670 C.2    64  GLU64       0.3649
     76  OE1       53.6420   61.0210   38.7530 O.co2  64  GLU64      -0.2457
     77  OE2       55.6480   61.7480   39.3100 O.co2  64  GLU64      -0.2457
     78  N         52.0600   58.9720   40.3030 N.am   65  ASP65      -0.1960
     79  CA        50.9260   59.8680   40.4710 C.3    65  ASP65       0.1840
     80  C         51.4970   61.1050   41.1680 C.2    65  ASP65       0.2623
     81  O         52.2940   60.9910   42.0970 O.2    65  ASP65      -0.2715
     82  CB        49.8310   59.2140   41.3170 C.3    65  ASP65       0.1450
     83  CG        48.4430   59.7410   40.9720 C.2    65  ASP65       0.3671
     84  OD1       48.0680   59.7050   39.7820 O.co2  65  ASP65      -0.2456
     85  OD2       47.7230   60.1930   41.8840 O.co2  65  ASP65      -0.2456
     86  N         51.1120   62.2860   40.7090 N.am   66  SER66      -0.1936
     87  CA        51.6370   63.4970   41.3000 C.3    66  SER66       0.2055
     88  C         50.6360   64.6150   41.1350 C.2    66  SER66       0.2643
     89  O         49.6410   64.4680   40.4310 O.2    66  SER66      -0.2714
     90  CB        52.9640   63.8640   40.6280 C.3    66  SER66       0.2130
     91  OG        52.8720   63.7400   39.2190 O.3    66  SER66      -0.2179
     92  N         50.9040   65.7320   41.8000 N.am   67  GLY67      -0.1954
     93  CA        50.0160   66.8700   41.7060 C.3    67  GLY67       0.1869
     94  C         50.5750   68.1130   42.3620 C.2    67  GLY67       0.2309
     95  O         51.6060   68.0690   43.0340 O.2    67  GLY67      -0.2863
     96  N         45.4460   65.7860   43.8310 N.3    79  VAL79      -0.1245
     97  CA        45.3020   64.5320   43.0990 C.3    79  VAL79       0.1561
     98  C         44.6450   64.7330   41.7280 C.2    79  VAL79       0.2260
     99  O         44.8480   63.9720   40.7910 O.2    79  VAL79      -0.2867
    100  CB        44.4600   63.5790   43.9480 C.3    79  VAL79       0.0252
    101  CG1       44.1590   62.3060   43.1600 C.3    79  VAL79       0.0019
    102  CG2       45.2090   63.2150   45.2170 C.3    79  VAL79       0.0019
    103  N         45.0180   67.3120   39.7190 N.3    81  SER81      -0.1202
    104  CA        45.7690   68.3350   38.9960 C.3    81  SER81       0.2020
    105  C         45.6030   68.2480   37.4780 C.2    81  SER81       0.2619
    106  O         45.5140   69.2690   36.7940 O.2    81  SER81      -0.2717
    107  CB        47.2560   68.2470   39.3530 C.3    81  SER81       0.2103
    108  OG        47.4720   68.6310   40.6990 O.3    81  SER81      -0.2182
    109  N         45.5610   67.0300   36.9520 N.am   82  SER82      -0.1951
    110  CA        45.4170   66.8390   35.5120 C.3    82  SER82       0.1924
    111  C         44.1000   67.3980   34.9760 C.2    82  SER82       0.2314
    112  O         44.0900   68.1820   34.0230 O.2    82  SER82      -0.2863
    113  CB        45.5210   65.3550   35.1630 C.3    82  SER82       0.2116
    114  OG        45.4150   65.1690   33.7630 O.3    82  SER82      -0.2180
    115  N         43.9370   71.1360   35.1970 N.3    85  TYR85      -0.1241
    116  CA        44.8040   71.7810   34.2240 C.3    85  TYR85       0.1605
    117  C         44.0970   71.8550   32.8810 C.2    85  TYR85       0.2264
    118  O         44.1420   72.8790   32.1910 O.2    85  TYR85      -0.2867
    119  CB        46.1040   70.9960   34.0380 C.3    85  TYR85       0.0534
    120  CG        46.9510   71.5550   32.9220 C.ar   85  TYR85      -0.0201
    121  CD1       47.6720   72.7400   33.0930 C.ar   85  TYR85      -0.0009
    122  CD2       46.9950   70.9300   31.6760 C.ar   85  TYR85      -0.0009
    123  CE1       48.4170   73.2910   32.0460 C.ar   85  TYR85       0.0417
    124  CE2       47.7340   71.4710   30.6210 C.ar   85  TYR85       0.0417
    125  CZ        48.4420   72.6490   30.8130 C.ar   85  TYR85       0.1957
    126  OH        49.1710   73.1810   29.7740 O.3    85  TYR85      -0.2866
    127  N         54.7140   70.5990   45.1070 N.3   107  PHE107     -0.1241
    128  CA        54.4910   69.5580   44.1210 C.3   107  PHE107      0.1605
    129  C         54.9000   68.2930   44.8540 C.2   107  PHE107      0.2264
    130  O         55.8710   68.2990   45.6100 O.2   107  PHE107     -0.2867
    131  CB        55.4090   69.7350   42.9130 C.3   107  PHE107      0.0534
    132  CG        54.7600   70.4000   41.7370 C.ar  107  PHE107     -0.0203
    133  CD1       53.6580   69.8200   41.1150 C.ar  107  PHE107     -0.0042
    134  CD2       55.2860   71.5780   41.2150 C.ar  107  PHE107     -0.0042
    135  CE1       53.0940   70.3980   39.9920 C.ar  107  PHE107     -0.0003
    136  CE2       54.7240   72.1690   40.0810 C.ar  107  PHE107     -0.0003
    137  CZ        53.6270   71.5760   39.4710 C.ar  107  PHE107     -0.0000
    138  N         56.0560   70.9660   31.4720 N.3   140  PHE140     -0.1227
    139  CA        54.6640   70.7780   31.0880 C.3   140  PHE140      0.1736
    140  C         53.7650   71.1610   32.2530 C.2   140  PHE140      0.2596
    141  O         54.2420   71.5610   33.3140 O.2   140  PHE140     -0.2718
    142  CB        54.4330   69.3090   30.7380 C.3   140  PHE140      0.0547
    143  CG        54.6680   68.3710   31.8920 C.ar  140  PHE140     -0.0202
    144  CD1       53.6100   67.9360   32.6770 C.ar  140  PHE140     -0.0042
    145  CD2       55.9520   67.9340   32.1970 C.ar  140  PHE140     -0.0042
    146  CE1       53.8240   67.0780   33.7440 C.ar  140  PHE140     -0.0003
    147  CE2       56.1790   67.0720   33.2670 C.ar  140  PHE140     -0.0003
    148  CZ        55.1120   66.6430   34.0410 C.ar  140  PHE140     -0.0000
    149  N         52.4600   71.0290   32.0450 N.am  141  GLY141     -0.1942
    150  CA        51.5000   71.3340   33.0880 C.3   141  GLY141      0.2014
    151  C         51.6510   72.6770   33.7730 C.2   141  GLY141      0.2639
    152  O         51.7150   73.7210   33.1160 O.2   141  GLY141     -0.2714
    153  N         51.7150   72.6370   35.1040 N.am  142  TYR142     -0.1959
    154  CA        51.8200   73.8320   35.9370 C.3   142  TYR142      0.1771
    155  C         53.2190   74.4410   36.0500 C.2   142  TYR142      0.2619
    156  O         53.4150   75.3990   36.7960 O.2   142  TYR142     -0.2715
    157  CB        51.3010   73.5170   37.3440 C.3   142  TYR142      0.0574
    158  CG        49.8540   73.0740   37.3880 C.ar  142  TYR142     -0.0198
    159  CD1       48.8240   74.0030   37.4740 C.ar  142  TYR142     -0.0009
    160  CD2       49.5190   71.7230   37.3380 C.ar  142  TYR142     -0.0009
    161  CE1       47.5000   73.6050   37.5120 C.ar  142  TYR142      0.0417
    162  CE2       48.1880   71.3110   37.3730 C.ar  142  TYR142      0.0417
    163  CZ        47.1860   72.2580   37.4610 C.ar  142  TYR142      0.1957
    164  OH        45.8630   71.8640   37.4840 O.3   142  TYR142     -0.2866
    165  N         54.1840   73.8990   35.3170 N.am  143  ASP143     -0.1971
    166  CA        55.5450   74.4190   35.3760 C.3   143  ASP143      0.1709
    167  C         55.6650   75.9410   35.1820 C.2   143  ASP143      0.2293
    168  O         56.4500   76.5910   35.8640 O.2   143  ASP143     -0.2864
    169  CB        56.4400   73.6960   34.3580 C.3   143  ASP143      0.1436
    170  CG        56.8400   72.2960   34.8150 C.2   143  ASP143      0.3671
    171  OD1       56.7050   71.9940   36.0180 O.co2 143  ASP143     -0.2456
    172  OD2       57.3080   71.4990   33.9760 O.co2 143  ASP143     -0.2456
    173  N         65.5350   70.8010   36.3760 N.3   163  LYS163     -0.1245
    174  CA        64.2780   70.5450   37.0710 C.3   163  LYS163      0.1561
    175  C         64.4080   69.3040   37.9520 C.2   163  LYS163      0.2260
    176  O         64.0410   69.3300   39.1310 O.2   163  LYS163     -0.2867
    177  CB        63.1340   70.3580   36.0720 C.3   163  LYS163      0.0271
    178  CG        61.7810   70.1210   36.7360 C.3   163  LYS163      0.0035
    179  CD        60.6860   69.9110   35.7100 C.3   163  LYS163      0.0206
    180  CE        59.3650   69.5270   36.3720 C.3   163  LYS163      0.1093
    181  NZ        58.3180   69.2340   35.3510 N.3   163  LYS163     -0.1314
    182  N         59.9900   67.5320   42.7380 N.3   168  HIS168     -0.1226
    183  CA        59.4100   66.4820   43.5600 C.3   168  HIS168      0.1752
    184  C         59.7290   65.1310   42.8990 C.2   168  HIS168      0.2595
    185  O         60.0930   64.1690   43.5700 O.2   168  HIS168     -0.2718
    186  CB        57.8970   66.6910   43.6330 C.3   168  HIS168      0.0759
    187  CG        57.2650   66.9440   42.2990 C.ar  168  HIS168      0.0818
    188  ND1       57.7050   67.9340   41.4470 N.ar  168  HIS168     -0.2268
    189  CD2       56.2450   66.3220   41.6600 C.ar  168  HIS168      0.1154
    190  CE1       56.9850   67.9090   40.3390 C.ar  168  HIS168      0.1986
    191  NE2       56.0930   66.9410   40.4430 N.ar  168  HIS168     -0.2212
    192  N         59.5900   65.0750   41.5770 N.am  169  ARG169     -0.1980
    193  CA        59.8640   63.8580   40.8170 C.3   169  ARG169      0.1597
    194  C         61.3430   63.4560   40.9720 C.2   169  ARG169      0.2287
    195  O         61.6630   62.2770   41.1350 O.2   169  ARG169     -0.2864
    196  CB        59.5060   64.0850   39.3370 C.3   169  ARG169      0.0334
    197  CG        59.6600   62.8620   38.4220 C.3   169  ARG169      0.0492
    198  CD        58.8860   63.0340   37.1060 C.3   169  ARG169      0.2205
    199  NE        57.4530   63.1410   37.3640 N.pl3 169  ARG169     -0.0865
    200  CZ        56.7580   64.2740   37.3390 C.cat 169  ARG169      0.5346
    201  NH1       57.3490   65.4230   37.0400 N.pl3 169  ARG169      0.1354
    202  NH2       55.4710   64.2640   37.6730 N.pl3 169  ARG169      0.1354
@<TRIPOS>BOND
     1    19    18    2
     2    20    17    1
     3    20    21    1
     4    18    17    1
     5    18    22   am
     6    17    16    1
     7    44    43    1
     8    44    45    1
     9    12    11    2
    10    46    45   ar
    11    24    23    1
    12    24    25    2
    13   126   125    1
    14    39    40    1
    15    43    40    1
    16    22    23    1
    17    23    26    1
    18    45    47   ar
    19    16    11   am
    20    11    10    1
    21   124   125   ar
    22   124   122   ar
    23   142   139    1
    24   142   143    1
    25   125   123   ar
    26    40    41    1
    27   139   138    1
    28   139   140    1
    29    28    27    2
    30    15    13    1
    31    26    27    1
    32   122   120   ar
    33    27    29   am
    34     9    10    1
    35     9     3   am
    36    42    41    2
    37    10    13    1
    38   143   145   ar
    39   143   144   ar
    40    30    31    1
    41    41    48   am
    42   149   140   am
    43   149   150    1
    44   123   121   ar
    45   118   117    2
    46   145   147   ar
    47     8     6    1
    48   140   141    2
    49    13    14    1
    50    32    31    1
    51    32    33    2
    52     2     3    1
    53     2     1    1
    54     2     5    1
    55   144   146   ar
    56     7     5    1
    57     3     4    2
    58   117   116    1
    59   120   121   ar
    60   120   119    1
    61    31    34    1
    62   150   151    1
    63   152   151    2
    64    48    49    1
    65   147   148   ar
    66     5     6    1
    67    34    35    1
    68   146   148   ar
    69   114   113    1
    70   151   153   am
    71   172   170   ar
    72   112   111    2
    73   119   116    1
    74   116   115    1
    75   169   170    1
    76   169   166    1
    77    35    36    1
    78    49    52    1
    79    49    50    1
    80   170   171   ar
    81    55    57   ar
    82    55    53   ar
    83   111   110    1
    84    36    37    1
    85   153   154    1
    86   113   110    1
    87    51    50    2
    88   167   166    1
    89   167   168    2
    90    52    53    1
    91   165   166    1
    92   165   155   am
    93   181   180    1
    94    57    58   ar
    95   110   109    1
    96    68    66   ar
    97   179   180    1
    98   179   178    1
    99    53    54   ar
   100    37    38    1
   101   154   155    1
   102   154   157    1
   103   155   156    2
   104   177   178    1
   105   177   174    1
   106   173   174    1
   107    58    59    1
   108    58    56   ar
   109    66    65    1
   110    66    67   ar
   111   106   105    2
   112   109   105   am
   113    54    56   ar
   114   201   200    1
   115   174   175    1
   116   198   199    1
   117   198   197    1
   118    65    64    1
   119   160   162   ar
   120   160   158   ar
   121   200   199    2
   122   200   202    1
   123   157   158    1
   124   162   163   ar
   125   158   159   ar
   126   163   164    1
   127   163   161   ar
   128   159   161   ar
   129   105   104    1
   130    60    61    1
   131   175   176    2
   132    64    61    1
   133    72    71    2
   134    69    70    1
   135   197   196    1
   136    73    70    1
   137    73    74    1
   138    76    75   ar
   139    61    62    1
   140   104   107    1
   141   104   103    1
   142    70    71    1
   143    71    78   am
   144    75    77   ar
   145    75    74    1
   146    91    90    1
   147    63    62    2
   148   196   193    1
   149   107   108    1
   150   137   135   ar
   151   137   136   ar
   152    84    83   ar
   153   135   133   ar
   154   136   134   ar
   155    78    79    1
   156   190   191   ar
   157   190   188   ar
   158    89    88    2
   159   191   189   ar
   160    79    80    1
   161    79    82    1
   162    90    87    1
   163    86    80   am
   164    86    87    1
   165    99    98    2
   166   193   194    1
   167   193   192    1
   168    83    82    1
   169    83    85   ar
   170   194   195    2
   171   133   132   ar
   172    88    87    1
   173    88    92   am
   174    80    81    2
   175   134   132   ar
   176   188   187   ar
   177   192   184   am
   178   189   187   ar
   179    93    92    1
   180    93    94    1
   181    98    97    1
   182   132   131    1
   183   187   186    1
   184    94    95    2
   185   182   183    1
   186   184   183    1
   187   184   185    2
   188   131   128    1
   189    97    96    1
   190    97   100    1
   191   101   100    1
   192   183   186    1
   193   100   102    1
   194   128   129    1
   195   128   127    1
   196   129   130    2
