@<TRIPOS>MOLECULE
tmp/2dvqA00.pdb
 154 152 0 0 0
SMALL
GASTEIGER

@<TRIPOS>ATOM
      1  N         11.8540   21.3160   26.0330 N.3    25  PRO25      -0.2102
      2  CA        11.7890   22.4520   26.9880 C.3    25  PRO25       0.1504
      3  C         12.5150   23.7270   26.5090 C.2    25  PRO25       0.2575
      4  O         12.3360   24.7620   27.1490 O.2    25  PRO25      -0.2718
      5  CB        12.4590   21.9220   28.2610 C.3    25  PRO25       0.0282
      6  CG        12.6350   20.3880   28.0710 C.3    25  PRO25       0.0208
      7  CD        12.6190   20.1720   26.5660 C.3    25  PRO25       0.0893
      8  N         13.3130   23.6320   25.4430 N.am   26  PHE26      -0.1977
      9  CA        14.1690   24.7240   24.9560 C.3    26  PHE26       0.1639
     10  C         13.6780   25.4540   23.6790 C.2    26  PHE26       0.2290
     11  O         14.2490   26.4580   23.2900 O.2    26  PHE26      -0.2864
     12  CB        15.5720   24.1710   24.7380 C.3    26  PHE26       0.0560
     13  CG        16.1840   23.6430   25.9800 C.ar   26  PHE26      -0.0200
     14  CD1       16.1650   22.2460   26.2510 C.ar   26  PHE26      -0.0042
     15  CD2       16.7620   24.5150   26.8990 C.ar   26  PHE26      -0.0042
     16  CE1       16.7280   21.7230   27.4280 C.ar   26  PHE26      -0.0003
     17  CE2       17.3120   24.0080   28.0810 C.ar   26  PHE26      -0.0003
     18  CZ        17.3100   22.6000   28.3350 C.ar   26  PHE26      -0.0000
     19  N         10.9150   30.1100   28.2110 N.3    30  VAL30      -0.1245
     20  CA        10.4760   29.4920   29.4500 C.3    30  VAL30       0.1561
     21  C          9.1870   30.1990   29.8500 C.2    30  VAL30       0.2260
     22  O          9.1270   31.4200   29.8230 O.2    30  VAL30      -0.2867
     23  CB        11.5450   29.6620   30.5570 C.3    30  VAL30       0.0252
     24  CG1       11.0070   29.2760   31.9540 C.3    30  VAL30       0.0019
     25  CG2       12.7960   28.8650   30.2190 C.3    30  VAL30       0.0019
     26  N          4.6470   26.8600   34.3090 N.3    35  LEU35      -0.1231
     27  CA         5.4550   25.8850   35.0420 C.3    35  LEU35       0.1693
     28  C          5.5140   26.0950   36.5570 C.2    35  LEU35       0.2593
     29  O          6.1140   25.2830   37.2710 O.2    35  LEU35      -0.2718
     30  CB         6.8820   25.8070   34.4750 C.3    35  LEU35       0.0284
     31  CG         7.1630   25.3130   33.0520 C.3    35  LEU35       0.0019
     32  CD1        8.6040   25.6780   32.6600 C.3    35  LEU35       0.0001
     33  CD2        6.9030   23.7870   32.8730 C.3    35  LEU35       0.0001
     34  N          4.8990   27.1670   37.0440 N.am   36  GLY36      -0.1942
     35  CA         4.8680   27.4430   38.4710 C.3    36  GLY36       0.2014
     36  C          6.2170   27.8580   39.0320 C.2    36  GLY36       0.2639
     37  O          6.6730   27.3550   40.0840 O.2    36  GLY36      -0.2714
     38  N          6.8390   28.8160   38.3330 N.am   37  LEU37      -0.1963
     39  CA         8.2050   29.2340   38.5940 C.3    37  LEU37       0.1713
     40  C          8.2140   30.7410   38.7820 C.2    37  LEU37       0.2458
     41  O          8.8000   31.4390   37.9670 O.2    37  LEU37      -0.2730
     42  CB         9.0680   28.8560   37.3790 C.3    37  LEU37       0.0310
     43  CG         9.8380   27.5410   37.2350 C.3    37  LEU37       0.0022
     44  CD1        9.2180   26.3930   37.9950 C.3    37  LEU37       0.0001
     45  CD2       10.0250   27.2050   35.7630 C.3    37  LEU37       0.0001
     46  N          7.5660   31.2460   39.8470 N.am   38  PRO38      -0.2716
     47  CA         7.4130   32.6940   40.0460 C.3    38  PRO38       0.1536
     48  C          8.7400   33.3660   40.3810 C.2    38  PRO38       0.2599
     49  O          8.8310   34.5920   40.3910 O.2    38  PRO38      -0.2715
     50  CB         6.4210   32.7990   41.2320 C.3    38  PRO38       0.0310
     51  CG         6.5430   31.4820   41.9610 C.3    38  PRO38       0.0237
     52  CD         6.9280   30.4680   40.9340 C.3    38  PRO38       0.0939
     53  N          9.7750   32.5670   40.6270 N.am   39  ASP39      -0.1958
     54  CA        11.0830   33.1420   40.8740 C.3    39  ASP39       0.1840
     55  C         11.9690   33.1960   39.5940 C.2    39  ASP39       0.2622
     56  O         13.0740   33.7120   39.6330 O.2    39  ASP39      -0.2715
     57  CB        11.7730   32.3820   42.0010 C.3    39  ASP39       0.1450
     58  CG        12.0200   30.9290   41.6570 C.2    39  ASP39       0.3671
     59  OD1       11.3970   30.3760   40.7100 O.co2  39  ASP39      -0.2456
     60  OD2       12.8660   30.2800   42.2650 O.co2  39  ASP39      -0.2456
     61  N         11.4600   32.6960   38.4740 N.am   40  TYR40      -0.1974
     62  CA        12.3290   32.4630   37.3040 C.3    40  TYR40       0.1639
     63  C         12.9670   33.7690   36.7680 C.2    40  TYR40       0.2290
     64  O         14.1960   33.8490   36.6020 O.2    40  TYR40      -0.2864
     65  CB        11.6300   31.6650   36.1810 C.3    40  TYR40       0.0560
     66  CG        12.6090   31.3470   35.0320 C.ar   40  TYR40      -0.0198
     67  CD1       13.4580   30.2340   35.0930 C.ar   40  TYR40      -0.0009
     68  CD2       12.7030   32.1790   33.9260 C.ar   40  TYR40      -0.0009
     69  CE1       14.3780   29.9400   34.0540 C.ar   40  TYR40       0.0417
     70  CE2       13.6230   31.9290   32.8870 C.ar   40  TYR40       0.0417
     71  CZ        14.4430   30.7930   32.9560 C.ar   40  TYR40       0.1957
     72  OH        15.3340   30.5460   31.9430 O.3    40  TYR40      -0.2866
     73  N         15.6500   35.5340   38.9290 N.3    43  ILE43      -0.1245
     74  CA        16.9920   34.9300   38.8740 C.3    43  ILE43       0.1561
     75  C         17.6310   35.0470   37.4850 C.2    43  ILE43       0.2260
     76  O         18.7980   35.3680   37.3450 O.2    43  ILE43      -0.2867
     77  CB        16.8940   33.4180   39.3170 C.3    43  ILE43       0.0252
     78  CG1       16.4970   33.3140   40.8100 C.3    43  ILE43       0.0019
     79  CG2       18.2180   32.6880   39.0850 C.3    43  ILE43       0.0019
     80  CD1       16.0490   31.9190   41.2280 C.3    43  ILE43       0.0001
     81  N         19.8480   27.7750   32.2990 N.3    75  CYS75      -0.1235
     82  CA        19.3400   26.4870   32.7820 C.3    75  CYS75       0.1677
     83  C         20.1730   25.9570   33.9710 C.2    75  CYS75       0.2270
     84  O         19.6200   25.6460   35.0260 O.2    75  CYS75      -0.2867
     85  CB        19.2340   25.5190   31.5990 C.3    75  CYS75       0.0956
     86  SG        18.6480   23.8880   32.0550 S.3    75  CYS75      -0.0801
     87  N         22.1180   27.7150   35.9250 N.3    77  ILE77      -0.1231
     88  CA        22.0640   28.6800   37.0090 C.3    77  ILE77       0.1692
     89  C         20.7390   28.6070   37.8100 C.2    77  ILE77       0.2592
     90  O         20.7680   28.5440   39.0180 O.2    77  ILE77      -0.2718
     91  CB        22.3460   30.1310   36.4900 C.3    77  ILE77       0.0266
     92  CG1       23.8230   30.3220   36.1330 C.3    77  ILE77       0.0019
     93  CG2       21.9210   31.1940   37.5270 C.3    77  ILE77       0.0020
     94  CD1       24.0440   31.6660   35.4040 C.3    77  ILE77       0.0001
     95  N         19.6090   28.6090   37.1160 N.am   78  TYR78      -0.1962
     96  CA        18.2890   28.6370   37.7490 C.3    78  TYR78       0.1771
     97  C         17.9520   27.3030   38.4380 C.2    78  TYR78       0.2620
     98  O         17.6250   27.2860   39.6090 O.2    78  TYR78      -0.2715
     99  CB        17.1790   28.9380   36.7290 C.3    78  TYR78       0.0574
    100  CG        15.8060   28.7840   37.3620 C.ar   78  TYR78      -0.0198
    101  CD1       15.3410   29.7350   38.2890 C.ar   78  TYR78      -0.0009
    102  CD2       15.0260   27.6560   37.1260 C.ar   78  TYR78      -0.0009
    103  CE1       14.0780   29.5870   38.9270 C.ar   78  TYR78       0.0417
    104  CE2       13.7850   27.4830   37.7690 C.ar   78  TYR78       0.0417
    105  CZ        13.3280   28.4490   38.6670 C.ar   78  TYR78       0.1957
    106  OH        12.1060   28.2950   39.2740 O.3    78  TYR78      -0.2866
    107  N         18.0830   26.1950   37.7210 N.am   79  ASN79      -0.1958
    108  CA        17.5910   24.9020   38.1810 C.3    79  ASN79       0.1819
    109  C         18.4490   24.2660   39.2960 C.2    79  ASN79       0.2621
    110  O         19.6310   24.5580   39.4270 O.2    79  ASN79      -0.2715
    111  CB        17.4070   23.9600   36.9790 C.3    79  ASN79       0.1195
    112  CG        16.2780   24.4150   36.0560 C.2    79  ASN79       0.2630
    113  OD1       15.0990   24.2810   36.3970 O.2    79  ASN79      -0.2716
    114  ND2       16.6250   24.9390   34.8910 N.am   79  ASN79      -0.0877
    115  N         17.8410   23.4160   40.1200 N.am   80  LYS80      -0.1977
    116  CA        18.6220   22.5980   41.0900 C.3    80  LYS80       0.1596
    117  C         19.5780   21.6610   40.3370 C.2    80  LYS80       0.2287
    118  O         19.2630   21.2280   39.2620 O.2    80  LYS80      -0.2864
    119  CB        17.6820   21.7350   41.9690 C.3    80  LYS80       0.0298
    120  CG        16.5460   22.5300   42.6150 C.3    80  LYS80       0.0038
    121  CD        15.8400   21.7300   43.6650 C.3    80  LYS80       0.0206
    122  CE        14.9570   22.6590   44.5240 C.3    80  LYS80       0.1093
    123  NZ        13.9020   21.9300   45.3180 N.3    80  LYS80      -0.1314
    124  N         19.9890   18.6310   40.6810 N.3    82  THR82      -0.1203
    125  CA        19.3840   17.2910   40.5650 C.3    82  THR82       0.1994
    126  C         18.2080   17.2320   39.6010 C.2    82  THR82       0.2618
    127  O         17.6050   16.1700   39.4220 O.2    82  THR82      -0.2717
    128  CB        18.8630   16.7960   41.9500 C.3    82  THR82       0.1784
    129  OG1       18.0890   17.8410   42.5590 O.3    82  THR82      -0.2211
    130  CG2       19.9930   16.5630   42.9320 C.3    82  THR82       0.0376
    131  N         17.8720   18.3720   39.0160 N.am   83  ASP83      -0.1959
    132  CA        16.7660   18.4840   38.0680 C.3    83  ASP83       0.1840
    133  C         17.1430   17.8080   36.7680 C.2    83  ASP83       0.2622
    134  O         18.2570   18.0610   36.2660 O.2    83  ASP83      -0.2715
    135  CB        16.4770   19.9740   37.7750 C.3    83  ASP83       0.1450
    136  CG        15.6570   20.6350   38.8590 C.2    83  ASP83       0.3671
    137  OD1       15.1350   19.9100   39.7120 O.co2  83  ASP83      -0.2456
    138  OD2       15.4670   21.8710   38.9430 O.co2  83  ASP83      -0.2456
    139  N         16.2410   16.9880   36.1930 N.am   84  ASP84      -0.1957
    140  CA        16.5110   16.3660   34.8770 C.3    84  ASP84       0.1840
    141  C         16.8450   17.4130   33.7930 C.2    84  ASP84       0.2621
    142  O         17.6350   17.1540   32.8950 O.2    84  ASP84      -0.2715
    143  CB        15.3080   15.5890   34.3280 C.3    84  ASP84       0.1450
    144  CG        14.8590   14.4520   35.2340 C.2    84  ASP84       0.3671
    145  OD1       15.5800   14.0580   36.1600 O.co2  84  ASP84      -0.2456
    146  OD2       13.7520   13.9120   35.0690 O.co2  84  ASP84      -0.2456
    147  N         16.2220   18.5780   33.8400 N.am   85  ILE85      -0.1977
    148  CA        16.5190   19.5820   32.7950 C.3    85  ILE85       0.1596
    149  C         18.0340   19.8840   32.6520 C.2    85  ILE85       0.2287
    150  O         18.5170   20.1690   31.5900 O.2    85  ILE85      -0.2864
    151  CB        15.6870   20.8550   32.9740 C.3    85  ILE85       0.0276
    152  CG1       15.8530   21.7530   31.7330 C.3    85  ILE85       0.0022
    153  CG2       16.0650   21.5840   34.2770 C.3    85  ILE85       0.0022
    154  CD1       14.6630   21.8540   30.9050 C.3    85  ILE85       0.0001
@<TRIPOS>BOND
     1    11    10    2
     2    10     9    1
     3    12     9    1
     4    12    13    1
     5     9     8    1
     6     8     3   am
     7    13    14   ar
     8    13    15   ar
     9     1     7    1
    10     1     2    1
    11    14    16   ar
    12     3     2    1
    13     3     4    2
    14     7     6    1
    15    15    17   ar
    16     2     5    1
    17    16    18   ar
    18     6     5    1
    19    17    18   ar
    20    19    20    1
    21    20    21    1
    22    20    23    1
    23    22    21    2
    24    25    23    1
    25    23    24    1
    26   154   152    1
    27   150   149    2
    28    85    86    1
    29    85    82    1
    30   152   151    1
    31    72    71    1
    32    81    82    1
    33   149   148    1
    34    32    31    1
    35    82    83    1
    36   148   151    1
    37   148   147    1
    38    33    31    1
    39    70    71   ar
    40    70    68   ar
    41   142   141    2
    42    71    69   ar
    43   151   153    1
    44    31    30    1
    45   141   147   am
    46   141   140    1
    47    68    66   ar
    48    83    84    2
    49    69    67   ar
    50    26    27    1
    51   143   140    1
    52   143   144    1
    53    30    27    1
    54   140   139    1
    55   114   112   am
    56    66    67   ar
    57    66    65    1
    58    27    28    1
    59   146   144   ar
    60   144   145   ar
    61    94    92    1
    62    45    43    1
    63    87    88    1
    64   112   113    2
    65   112   111    1
    66    92    91    1
    67    65    62    1
    68   139   133   am
    69   134   133    2
    70    91    88    1
    71    91    93    1
    72    28    34   am
    73    28    29    2
    74    64    63    2
    75    99   100    1
    76    99    96    1
    77    63    62    1
    78   133   132    1
    79   111   108    1
    80    88    89    1
    81    34    35    1
    82    95    96    1
    83    95    89   am
    84   102   100   ar
    85   102   104   ar
    86    43    42    1
    87    43    44    1
    88    62    61    1
    89    76    75    2
    90   100   101   ar
    91    42    39    1
    92    75    74    1
    93   107   108    1
    94   107    97   am
    95    96    97    1
    96   104   105   ar
    97   135   132    1
    98   135   136    1
    99    89    90    2
   100    41    40    2
   101   132   131    1
   102   108   109    1
   103   101   103   ar
   104    38    39    1
   105    38    36   am
   106    97    98    2
   107    35    36    1
   108    61    55   am
   109    39    40    1
   110   105   103   ar
   111   105   106    1
   112    40    46   am
   113   136   138   ar
   114   136   137   ar
   115    74    73    1
   116    74    77    1
   117   131   126   am
   118    36    37    2
   119    79    77    1
   120   118   117    2
   121   109   110    2
   122   109   115   am
   123    77    78    1
   124   127   126    2
   125    55    56    2
   126    55    54    1
   127   126   125    1
   128    46    47    1
   129    46    52    1
   130    47    48    1
   131    47    50    1
   132   115   116    1
   133   117   116    1
   134    48    49    2
   135    48    53   am
   136   125   124    1
   137   125   128    1
   138    53    54    1
   139    59    58   ar
   140    78    80    1
   141    54    57    1
   142    52    51    1
   143   116   119    1
   144    50    51    1
   145    58    57    1
   146    58    60   ar
   147   128   129    1
   148   128   130    1
   149   119   120    1
   150   120   121    1
   151   121   122    1
   152   122   123    1
