@<TRIPOS>MOLECULE
tmp/2dvqB00.pdb
 238 238 0 0 0
SMALL
GASTEIGER

@<TRIPOS>ATOM
      1  N         40.5660   31.8170   40.3980 N.3    25  PRO25      -0.2102
      2  CA        39.8140   30.7170   41.0440 C.3    25  PRO25       0.1504
      3  C         39.8130   29.4200   40.2510 C.2    25  PRO25       0.2575
      4  O         39.4180   28.3880   40.8270 O.2    25  PRO25      -0.2718
      5  CB        38.3780   31.2440   41.1350 C.3    25  PRO25       0.0282
      6  CG        38.4830   32.6960   40.9430 C.3    25  PRO25       0.0208
      7  CD        39.6840   32.9430   40.0650 C.3    25  PRO25       0.0893
      8  N         40.2300   29.4790   38.9840 N.am   26  PHE26      -0.1977
      9  CA        40.0600   28.3590   38.0560 C.3    26  PHE26       0.1639
     10  C         41.3340   27.6340   37.6980 C.2    26  PHE26       0.2290
     11  O         41.3020   26.6510   36.9680 O.2    26  PHE26      -0.2864
     12  CB        39.3570   28.8290   36.7720 C.3    26  PHE26       0.0560
     13  CG        37.9790   29.3670   37.0090 C.ar   26  PHE26      -0.0200
     14  CD1       37.7590   30.7440   37.0840 C.ar   26  PHE26      -0.0042
     15  CD2       36.8980   28.5050   37.1630 C.ar   26  PHE26      -0.0042
     16  CE1       36.4830   31.2650   37.2890 C.ar   26  PHE26      -0.0003
     17  CE2       35.5950   29.0100   37.4000 C.ar   26  PHE26      -0.0003
     18  CZ        35.3870   30.3850   37.4450 C.ar   26  PHE26      -0.0000
     19  N         39.3720   22.9680   42.4690 N.3    30  VAL30      -0.1245
     20  CA        38.6910   23.5240   43.6260 C.3    30  VAL30       0.1561
     21  C         39.1180   22.7500   44.8860 C.2    30  VAL30       0.2260
     22  O         39.0130   21.5320   44.9620 O.2    30  VAL30      -0.2867
     23  CB        37.1560   23.4240   43.4730 C.3    30  VAL30       0.0252
     24  CG1       36.4480   23.8910   44.7530 C.3    30  VAL30       0.0019
     25  CG2       36.6660   24.1450   42.2050 C.3    30  VAL30       0.0019
     26  N         38.2350   26.1170   50.9330 N.3    35  LEU35      -0.1231
     27  CA        37.1090   27.0140   50.7030 C.3    35  LEU35       0.1693
     28  C         35.8950   26.7630   51.6040 C.2    35  LEU35       0.2593
     29  O         34.9290   27.5320   51.5730 O.2    35  LEU35      -0.2718
     30  CB        36.7120   27.0110   49.2240 C.3    35  LEU35       0.0284
     31  CG        37.6860   27.5290   48.1490 C.3    35  LEU35       0.0019
     32  CD1       37.0080   27.4430   46.7830 C.3    35  LEU35       0.0001
     33  CD2       38.2150   28.9650   48.3870 C.3    35  LEU35       0.0001
     34  N         35.9420   25.7090   52.4070 N.am   36  GLY36      -0.1942
     35  CA        34.8650   25.4170   53.3460 C.3    36  GLY36       0.2014
     36  C         33.6130   24.9240   52.6500 C.2    36  GLY36       0.2639
     37  O         32.5040   25.3550   52.9730 O.2    36  GLY36      -0.2714
     38  N         33.7930   24.0140   51.6880 N.am   37  LEU37      -0.1963
     39  CA        32.7080   23.5840   50.8040 C.3    37  LEU37       0.1713
     40  C         32.4410   22.0930   50.9690 C.2    37  LEU37       0.2458
     41  O         32.7400   21.3570   50.0420 O.2    37  LEU37      -0.2730
     42  CB        33.1210   23.8590   49.3530 C.3    37  LEU37       0.0310
     43  CG        32.8270   25.1830   48.6280 C.3    37  LEU37       0.0022
     44  CD1       32.6050   26.3960   49.4840 C.3    37  LEU37       0.0001
     45  CD2       33.8850   25.4770   47.5270 C.3    37  LEU37       0.0001
     46  N         31.9140   21.6420   52.1310 N.am   38  PRO38      -0.2716
     47  CA        31.7750   20.2010   52.4300 C.3    38  PRO38       0.1536
     48  C         30.8410   19.4410   51.4630 C.2    38  PRO38       0.2599
     49  O         31.0270   18.2300   51.2630 O.2    38  PRO38      -0.2715
     50  CB        31.2170   20.1770   53.8730 C.3    38  PRO38       0.0310
     51  CG        30.6190   21.5280   54.0840 C.3    38  PRO38       0.0237
     52  CD        31.4140   22.4770   53.2440 C.3    38  PRO38       0.0939
     53  N         29.8890   20.1670   50.8600 N.am   39  ASP39      -0.1958
     54  CA        29.0160   19.6530   49.7880 C.3    39  ASP39       0.1840
     55  C         29.5760   19.6110   48.3510 C.2    39  ASP39       0.2622
     56  O         28.9410   19.0310   47.4680 O.2    39  ASP39      -0.2715
     57  CB        27.7100   20.4490   49.7670 C.3    39  ASP39       0.1450
     58  CG        27.9170   21.9560   49.5560 C.2    39  ASP39       0.3671
     59  OD1       29.0650   22.4890   49.5460 O.co2  39  ASP39      -0.2456
     60  OD2       26.9360   22.7010   49.3660 O.co2  39  ASP39      -0.2456
     61  N         30.7410   20.2130   48.1050 N.am   40  TYR40      -0.1974
     62  CA        31.2170   20.3960   46.7170 C.3    40  TYR40       0.1639
     63  C         31.2450   19.0910   45.9470 C.2    40  TYR40       0.2290
     64  O         30.6360   19.0000   44.8950 O.2    40  TYR40      -0.2864
     65  CB        32.6040   21.0830   46.6100 C.3    40  TYR40       0.0560
     66  CG        32.9470   21.4600   45.1550 C.ar   40  TYR40      -0.0198
     67  CD1       32.3780   22.6010   44.5390 C.ar   40  TYR40      -0.0009
     68  CD2       33.8140   20.6850   44.4070 C.ar   40  TYR40      -0.0009
     69  CE1       32.6810   22.9410   43.1940 C.ar   40  TYR40       0.0417
     70  CE2       34.1150   21.0100   43.0550 C.ar   40  TYR40       0.0417
     71  CZ        33.5580   22.1360   42.4640 C.ar   40  TYR40       0.1957
     72  OH        33.8630   22.4310   41.1540 O.3    40  TYR40      -0.2866
     73  N         29.8530   16.3710   46.6450 N.3    42  LYS42      -0.1231
     74  CA        28.5290   15.7420   46.5940 C.3    42  LYS42       0.1693
     75  C         27.8050   16.1700   45.3010 C.2    42  LYS42       0.2592
     76  O         27.1180   15.3630   44.6650 O.2    42  LYS42      -0.2718
     77  CB        27.6550   16.1220   47.8160 C.3    42  LYS42       0.0285
     78  CG        28.2650   15.9180   49.2170 C.3    42  LYS42       0.0035
     79  CD        28.5500   14.4560   49.5730 C.3    42  LYS42       0.0206
     80  CE        29.2230   14.3630   50.9800 C.3    42  LYS42       0.1093
     81  NZ        28.2120   14.4360   52.0760 N.3    42  LYS42      -0.1314
     82  N         27.9490   17.4450   44.9270 N.am   43  ILE43      -0.1966
     83  CA        27.2100   18.0140   43.8020 C.3    43  ILE43       0.1727
     84  C         28.0290   17.8790   42.5280 C.2    43  ILE43       0.2616
     85  O         27.4920   17.6350   41.4670 O.2    43  ILE43      -0.2715
     86  CB        26.9030   19.5450   44.0640 C.3    43  ILE43       0.0290
     87  CG1       25.9720   19.7590   45.2480 C.3    43  ILE43       0.0022
     88  CG2       26.3080   20.2570   42.8370 C.3    43  ILE43       0.0023
     89  CD1       25.7460   18.5530   46.0090 C.3    43  ILE43       0.0001
     90  N         29.3360   18.0900   42.6180 N.am   44  ILE44      -0.1963
     91  CA        30.1450   18.1110   41.4060 C.3    44  ILE44       0.1727
     92  C         30.9080   16.8160   41.3070 C.2    44  ILE44       0.2616
     93  O         31.8300   16.5690   42.0720 O.2    44  ILE44      -0.2715
     94  CB        31.0720   19.3400   41.3880 C.3    44  ILE44       0.0290
     95  CG1       30.2290   20.6260   41.4500 C.3    44  ILE44       0.0022
     96  CG2       32.0170   19.2880   40.2100 C.3    44  ILE44       0.0023
     97  CD1       29.2040   20.7570   40.3050 C.3    44  ILE44       0.0001
     98  N         30.5250   16.0130   40.3350 N.am   45  LYS45      -0.1963
     99  CA        31.0370   14.6480   40.1890 C.3    45  LYS45       0.1728
    100  C         32.2670   14.5770   39.2770 C.2    45  LYS45       0.2616
    101  O         32.9920   13.5800   39.2840 O.2    45  LYS45      -0.2715
    102  CB        29.9270   13.7610   39.5850 C.3    45  LYS45       0.0311
    103  CG        28.7500   13.4260   40.5170 C.3    45  LYS45       0.0038
    104  CD        29.0890   13.6970   41.9530 C.3    45  LYS45       0.0206
    105  CE        28.5830   12.6330   42.8580 C.3    45  LYS45       0.1093
    106  NZ        29.5030   12.5810   44.0240 N.3    45  LYS45      -0.1314
    107  N         32.4430   15.6040   38.4420 N.am   46  GLN46      -0.1977
    108  CA        33.5650   15.7130   37.5370 C.3    46  GLN46       0.1601
    109  C         34.2590   17.0880   37.6680 C.2    46  GLN46       0.2287
    110  O         34.0460   17.9670   36.8180 O.2    46  GLN46      -0.2864
    111  CB        33.0580   15.5170   36.0900 C.3    46  GLN46       0.0394
    112  CG        34.1940   15.0900   35.1760 C.3    46  GLN46       0.0908
    113  CD        33.9060   15.2110   33.6920 C.2    46  GLN46       0.2608
    114  OE1       34.8290   15.5080   32.9220 O.2    46  GLN46      -0.2717
    115  NE2       32.6570   14.9210   33.2790 N.am   46  GLN46      -0.0878
    116  N         32.9090   21.6780   30.9460 N.3    71  THR71      -0.1218
    117  CA        32.6130   21.0680   32.2300 C.3    71  THR71       0.1862
    118  C         33.0460   22.0000   33.3900 C.2    71  THR71       0.2287
    119  O         32.3360   22.1390   34.3840 O.2    71  THR71      -0.2866
    120  CB        33.4020   19.7620   32.3380 C.3    71  THR71       0.1770
    121  OG1       32.8470   18.8190   31.4240 O.3    71  THR71      -0.2211
    122  CG2       33.2680   19.1600   33.7340 C.3    71  THR71       0.0375
    123  N         30.4920   24.8620   33.6040 N.3    73  THR73      -0.1203
    124  CA        29.2420   24.3040   34.0260 C.3    73  THR73       0.1994
    125  C         29.1730   23.8590   35.4840 C.2    73  THR73       0.2618
    126  O         28.1750   24.1490   36.1170 O.2    73  THR73      -0.2717
    127  CB        28.8040   23.1590   33.0750 C.3    73  THR73       0.1784
    128  OG1       28.5860   23.7180   31.7610 O.3    73  THR73      -0.2211
    129  CG2       27.4410   22.7140   33.4430 C.3    73  THR73       0.0376
    130  N         30.1950   23.1380   35.9840 N.am   74  ASN74      -0.1960
    131  CA        30.3410   22.8390   37.4200 C.3    74  ASN74       0.1819
    132  C         30.0880   24.0900   38.2340 C.2    74  ASN74       0.2621
    133  O         29.3630   24.0720   39.2250 O.2    74  ASN74      -0.2715
    134  CB        31.7720   22.3970   37.7080 C.3    74  ASN74       0.1195
    135  CG        32.0500   21.0140   37.1710 C.2    74  ASN74       0.2630
    136  OD1       31.1070   20.3260   36.7290 O.2    74  ASN74      -0.2716
    137  ND2       33.2960   20.5690   37.2760 N.am   74  ASN74      -0.0877
    138  N         30.7320   25.1720   37.7960 N.am   75  CYS75      -0.1954
    139  CA        30.6440   26.4370   38.4920 C.3    75  CYS75       0.1843
    140  C         29.1920   26.9420   38.5790 C.2    75  CYS75       0.2625
    141  O         28.6990   27.2650   39.6670 O.2    75  CYS75      -0.2714
    142  CB        31.6130   27.4540   37.8800 C.3    75  CYS75       0.0997
    143  SG        31.5520   29.0270   38.7470 S.3    75  CYS75      -0.0797
    144  N         28.4730   26.9270   37.4640 N.am   76  TYR76      -0.1960
    145  CA        27.0870   27.4010   37.4600 C.3    76  TYR76       0.1771
    146  C         26.1600   26.5270   38.2580 C.2    76  TYR76       0.2619
    147  O         25.1600   26.9890   38.8310 O.2    76  TYR76      -0.2715
    148  CB        26.5690   27.4530   36.0200 C.3    76  TYR76       0.0574
    149  CG        27.4020   28.2850   35.0660 C.ar   76  TYR76      -0.0198
    150  CD1       27.9060   29.5290   35.4440 C.ar   76  TYR76      -0.0009
    151  CD2       27.6580   27.8280   33.7780 C.ar   76  TYR76      -0.0009
    152  CE1       28.6780   30.2710   34.5720 C.ar   76  TYR76       0.0417
    153  CE2       28.4370   28.5350   32.9150 C.ar   76  TYR76       0.0417
    154  CZ        28.9450   29.7870   33.3260 C.ar   76  TYR76       0.1957
    155  OH        29.6660   30.5320   32.4410 O.3    76  TYR76      -0.2866
    156  N         26.4570   25.2340   38.2530 N.am   77  ILE77      -0.1963
    157  CA        25.6000   24.2500   38.8990 C.3    77  ILE77       0.1727
    158  C         25.7670   24.2850   40.4270 C.2    77  ILE77       0.2616
    159  O         24.7950   24.2540   41.1500 O.2    77  ILE77      -0.2715
    160  CB        25.9040   22.8060   38.3420 C.3    77  ILE77       0.0290
    161  CG1       25.3700   22.6740   36.9270 C.3    77  ILE77       0.0022
    162  CG2       25.2900   21.7030   39.2650 C.3    77  ILE77       0.0023
    163  CD1       25.7130   21.3500   36.3080 C.3    77  ILE77       0.0001
    164  N         27.0070   24.3510   40.8860 N.am   78  TYR78      -0.1960
    165  CA        27.3070   24.3300   42.3040 C.3    78  TYR78       0.1771
    166  C         26.9960   25.6670   43.0190 C.2    78  TYR78       0.2620
    167  O         26.3350   25.6740   44.0580 O.2    78  TYR78      -0.2715
    168  CB        28.7680   23.9510   42.5660 C.3    78  TYR78       0.0574
    169  CG        29.0420   24.0570   44.0620 C.ar   78  TYR78      -0.0198
    170  CD1       28.6680   23.0200   44.9430 C.ar   78  TYR78      -0.0009
    171  CD2       29.5790   25.2370   44.6030 C.ar   78  TYR78      -0.0009
    172  CE1       28.8830   23.1490   46.3180 C.ar   78  TYR78       0.0417
    173  CE2       29.7780   25.3730   45.9520 C.ar   78  TYR78       0.0417
    174  CZ        29.4260   24.3520   46.8000 C.ar   78  TYR78       0.1957
    175  OH        29.6320   24.5770   48.1410 O.3    78  TYR78      -0.2866
    176  N         27.4800   26.7870   42.4700 N.am   79  ASN79      -0.1958
    177  CA        27.3860   28.0780   43.1680 C.3    79  ASN79       0.1819
    178  C         25.9860   28.7020   43.1320 C.2    79  ASN79       0.2621
    179  O         25.1990   28.4130   42.2300 O.2    79  ASN79      -0.2715
    180  CB        28.4790   29.0330   42.6440 C.3    79  ASN79       0.1195
    181  CG        29.8910   28.5190   42.9630 C.2    79  ASN79       0.2630
    182  OD1       30.3400   28.6460   44.0620 O.2    79  ASN79      -0.2716
    183  ND2       30.5810   27.9520   41.9730 N.am   79  ASN79      -0.0877
    184  N         25.6680   29.5420   44.1110 N.am   80  LYS80      -0.1964
    185  CA        24.4560   30.4040   44.0530 C.3    80  LYS80       0.1713
    186  C         24.4710   31.3060   42.8330 C.2    80  LYS80       0.2458
    187  O         25.5340   31.7970   42.4830 O.2    80  LYS80      -0.2730
    188  CB        24.3250   31.2770   45.3190 C.3    80  LYS80       0.0311
    189  CG        24.3900   30.4580   46.6150 C.3    80  LYS80       0.0038
    190  CD        23.6910   31.1750   47.7820 C.3    80  LYS80       0.0206
    191  CE        23.9790   30.4990   49.1380 C.3    80  LYS80       0.1093
    192  NZ        23.6010   29.0160   49.2540 N.3    80  LYS80      -0.1314
    193  N         23.3220   31.5410   42.1960 N.am   81  PRO81      -0.2716
    194  CA        23.2540   32.4450   41.0590 C.3    81  PRO81       0.1536
    195  C         23.9330   33.7980   41.3530 C.2    81  PRO81       0.2599
    196  O         24.5210   34.3440   40.4200 O.2    81  PRO81      -0.2715
    197  CB        21.7370   32.6600   40.8920 C.3    81  PRO81       0.0310
    198  CG        21.1480   31.2990   41.3490 C.3    81  PRO81       0.0237
    199  CD        21.9810   31.0010   42.5280 C.3    81  PRO81       0.0939
    200  N         23.8740   34.2790   42.6050 N.am   82  THR82      -0.1937
    201  CA        24.3490   35.6390   42.9660 C.3    82  THR82       0.2028
    202  C         25.8600   35.7070   43.3380 C.2    82  THR82       0.2642
    203  O         26.3780   36.7890   43.5880 O.2    82  THR82      -0.2714
    204  CB        23.5360   36.1490   44.1900 C.3    82  THR82       0.1808
    205  OG1       23.5580   35.1230   45.1970 O.3    82  THR82      -0.2208
    206  CG2       22.0180   36.2740   43.8640 C.3    82  THR82       0.0379
    207  N         26.5570   34.5700   43.3800 N.am   83  ASP83      -0.1957
    208  CA        28.0030   34.5460   43.7060 C.3    83  ASP83       0.1840
    209  C         28.8500   35.1720   42.6060 C.2    83  ASP83       0.2622
    210  O         28.5510   34.9250   41.4230 O.2    83  ASP83      -0.2715
    211  CB        28.4610   33.1040   43.8700 C.3    83  ASP83       0.1450
    212  CG        27.9340   32.4840   45.1100 C.2    83  ASP83       0.3671
    213  OD1       27.5670   33.2410   46.0550 O.co2  83  ASP83      -0.2456
    214  OD2       27.8530   31.2450   45.2450 O.co2  83  ASP83      -0.2456
    215  N         29.8840   35.9710   42.9900 N.am   84  ASP84      -0.1957
    216  CA        30.8260   36.5650   42.0240 C.3    84  ASP84       0.1840
    217  C         31.4680   35.5250   41.1050 C.2    84  ASP84       0.2621
    218  O         31.6490   35.7630   39.9420 O.2    84  ASP84      -0.2715
    219  CB        31.9720   37.3270   42.7250 C.3    84  ASP84       0.1450
    220  CG        31.4870   38.5560   43.4640 C.2    84  ASP84       0.3671
    221  OD1       30.2740   38.8940   43.3220 O.co2  84  ASP84      -0.2456
    222  OD2       32.2520   39.1960   44.2270 O.co2  84  ASP84      -0.2456
    223  N         31.8070   34.3660   41.6430 N.am   85  ILE85      -0.1977
    224  CA        32.4080   33.3220   40.8130 C.3    85  ILE85       0.1596
    225  C         31.5940   33.0300   39.5330 C.2    85  ILE85       0.2287
    226  O         32.1670   32.7110   38.4860 O.2    85  ILE85      -0.2864
    227  CB        32.6660   32.0550   41.6630 C.3    85  ILE85       0.0276
    228  CG1       33.5510   31.0610   40.9320 C.3    85  ILE85       0.0022
    229  CG2       31.3700   31.3720   42.0310 C.3    85  ILE85       0.0022
    230  CD1       34.9330   31.2420   41.1970 C.3    85  ILE85       0.0001
    231  N         29.7900   35.1220   37.7550 N.3    87  LEU87      -0.1245
    232  CA        30.0610   36.1970   36.8160 C.3    87  LEU87       0.1561
    233  C         31.4440   36.0330   36.1940 C.2    87  LEU87       0.2260
    234  O         31.6100   36.2470   35.0330 O.2    87  LEU87      -0.2867
    235  CB        30.0570   37.5220   37.5880 C.3    87  LEU87       0.0270
    236  CG        28.8000   38.3110   37.9210 C.3    87  LEU87       0.0019
    237  CD1       27.4640   37.6090   37.7070 C.3    87  LEU87       0.0001
    238  CD2       28.9150   38.9650   39.3220 C.3    87  LEU87       0.0001
@<TRIPOS>BOND
     1   116   117    1
     2   121   120    1
     3   128   127    1
     4   117   120    1
     5   117   118    1
     6   120   122    1
     7   155   154    1
     8   153   154   ar
     9   153   151   ar
    10   114   113    2
    11   127   129    1
    12   127   124    1
    13   115   113   am
    14   154   152   ar
    15   118   119    2
    16   123   124    1
    17   113   112    1
    18   151   149   ar
    19   124   125    1
    20   152   150   ar
    21   234   233    2
    22   149   150   ar
    23   149   148    1
    24   112   111    1
    25   125   130   am
    26   125   126    2
    27   130   131    1
    28   148   145    1
    29   111   108    1
    30   233   232    1
    31   163   161    1
    32   136   135    2
    33    12    13    1
    34    12     9    1
    35   232   235    1
    36   232   231    1
    37   110   109    2
    38   161   160    1
    39    11    10    2
    40    13    14   ar
    41    13    15   ar
    42    14    16   ar
    43    15    17   ar
    44   135   137   am
    45   135   134    1
    46    16    18   ar
    47    17    18   ar
    48   131   134    1
    49   131   132    1
    50   145   144    1
    51   145   146    1
    52   144   140   am
    53   108   109    1
    54   108   107    1
    55   235   236    1
    56    10     9    1
    57   237   236    1
    58   138   132   am
    59   138   139    1
    60   142   139    1
    61   142   143    1
    62   236   238    1
    63     9     8    1
    64   132   133    2
    65   156   146   am
    66   156   157    1
    67   146   147    2
    68   160   157    1
    69   160   162    1
    70   107   100   am
    71   226   225    2
    72   139   140    1
    73   140   141    2
    74   157   158    1
    75     8     3   am
    76   100   101    2
    77   100    99    1
    78   225   224    1
    79   102    99    1
    80   102   103    1
    81   218   217    2
    82     7     1    1
    83     7     6    1
    84    99    98    1
    85    96    94    1
    86     3     4    2
    87     3     2    1
    88    97    95    1
    89    98    92   am
    90     1     2    1
    91   196   195    2
    92   158   164   am
    93   158   159    2
    94   103   104    1
    95   224   223    1
    96   224   227    1
    97   164   165    1
    98   197   194    1
    99   197   198    1
   100   228   230    1
   101   228   227    1
   102     6     5    1
   103     2     5    1
   104   194   195    1
   105   194   193    1
   106   217   223   am
   107   217   216    1
   108    72    71    1
   109    92    91    1
   110    92    93    2
   111   198   199    1
   112   195   200   am
   113    94    91    1
   114    94    95    1
   115    91    90    1
   116   210   209    2
   117    85    84    2
   118   227   229    1
   119   104   105    1
   120   183   181   am
   121   216   219    1
   122   216   215    1
   123   193   199    1
   124   193   186   am
   125    25    23    1
   126   179   178    2
   127   165   168    1
   128   165   166    1
   129    71    70   ar
   130    71    69   ar
   131    19    20    1
   132   176   166   am
   133   176   177    1
   134   187   186    2
   135    84    90   am
   136    84    83    1
   137   168   169    1
   138   200   201    1
   139   209   215   am
   140   209   208    1
   141   180   181    1
   142   180   177    1
   143   219   220    1
   144   186   185    1
   145    88    86    1
   146   105   106    1
   147   181   182    2
   148   201   202    1
   149   201   204    1
   150   166   167    2
   151    70    68   ar
   152   178   177    1
   153   178   184   am
   154    69    67   ar
   155   221   220   ar
   156   202   207   am
   157   202   203    2
   158   207   208    1
   159   220   222   ar
   160    23    20    1
   161    23    24    1
   162    20    21    1
   163   208   211    1
   164    83    86    1
   165    83    82    1
   166   206   204    1
   167   211   212    1
   168   185   184    1
   169   185   188    1
   170   169   171   ar
   171   169   170   ar
   172    86    87    1
   173   204   205    1
   174    68    66   ar
   175    67    66   ar
   176   171   173   ar
   177    76    75    2
   178    21    22    2
   179    64    63    2
   180    82    75   am
   181   170   172   ar
   182   212   214   ar
   183   212   213   ar
   184    66    65    1
   185    87    89    1
   186    75    74    1
   187   188   189    1
   188    63    62    1
   189   173   174   ar
   190   172   174   ar
   191    74    73    1
   192    74    77    1
   193    65    62    1
   194   189   190    1
   195    62    61    1
   196    32    31    1
   197   174   175    1
   198    56    55    2
   199    45    43    1
   200   190   191    1
   201    77    78    1
   202    61    55   am
   203    31    33    1
   204    31    30    1
   205    55    54    1
   206    43    42    1
   207    43    44    1
   208   191   192    1
   209    78    79    1
   210    30    27    1
   211    42    39    1
   212    60    58   ar
   213    59    58   ar
   214    58    57    1
   215    79    80    1
   216    57    54    1
   217    54    53    1
   218    41    40    2
   219    27    26    1
   220    27    28    1
   221    39    40    1
   222    39    38    1
   223    53    48   am
   224    40    46   am
   225    80    81    1
   226    49    48    2
   227    48    47    1
   228    29    28    2
   229    28    34   am
   230    38    36   am
   231    46    47    1
   232    46    52    1
   233    34    35    1
   234    47    50    1
   235    36    37    2
   236    36    35    1
   237    52    51    1
   238    50    51    1
