@<TRIPOS>MOLECULE
tmp/2dvrB00.pdb
 181 182 0 0 0
SMALL
GASTEIGER

@<TRIPOS>ATOM
      1  N         40.4510   31.7090   40.6880 N.3    25  PRO25      -0.2102
      2  CA        39.6560   30.6080   41.2850 C.3    25  PRO25       0.1504
      3  C         39.6100   29.3070   40.4590 C.2    25  PRO25       0.2575
      4  O         39.1330   28.3060   40.9880 O.2    25  PRO25      -0.2718
      5  CB        38.2340   31.1850   41.3500 C.3    25  PRO25       0.0282
      6  CG        38.4030   32.6870   41.2970 C.3    25  PRO25       0.0208
      7  CD        39.5860   32.8680   40.3780 C.3    25  PRO25       0.0893
      8  N         40.0980   29.3280   39.2190 N.am   26  PHE26      -0.1977
      9  CA        39.9060   28.2260   38.2990 C.3    26  PHE26       0.1639
     10  C         41.2080   27.5550   37.9810 C.2    26  PHE26       0.2290
     11  O         41.2450   26.5730   37.2560 O.2    26  PHE26      -0.2864
     12  CB        39.2370   28.7040   36.9910 C.3    26  PHE26       0.0560
     13  CG        37.8640   29.2650   37.1940 C.ar   26  PHE26      -0.0200
     14  CD1       37.6780   30.6470   37.3450 C.ar   26  PHE26      -0.0042
     15  CD2       36.7660   28.4220   37.3180 C.ar   26  PHE26      -0.0042
     16  CE1       36.3880   31.1870   37.5670 C.ar   26  PHE26      -0.0003
     17  CE2       35.4950   28.9340   37.5690 C.ar   26  PHE26      -0.0003
     18  CZ        35.2950   30.3090   37.6720 C.ar   26  PHE26      -0.0000
     19  N         39.1920   22.8680   42.7140 N.3    30  VAL30      -0.1245
     20  CA        38.4830   23.4430   43.8630 C.3    30  VAL30       0.1561
     21  C         38.9430   22.6620   45.1090 C.2    30  VAL30       0.2260
     22  O         38.8720   21.4050   45.1880 O.2    30  VAL30      -0.2867
     23  CB        36.9230   23.3740   43.7290 C.3    30  VAL30       0.0252
     24  CG1       36.2380   23.9780   44.9700 C.3    30  VAL30       0.0019
     25  CG2       36.4060   24.0620   42.4530 C.3    30  VAL30       0.0019
     26  N         38.1390   25.9730   51.1680 N.3    35  LEU35      -0.1231
     27  CA        36.9670   26.8540   50.9910 C.3    35  LEU35       0.1693
     28  C         35.7150   26.5970   51.9000 C.2    35  LEU35       0.2593
     29  O         34.7200   27.3260   51.8200 O.2    35  LEU35      -0.2718
     30  CB        36.6070   27.0060   49.4870 C.3    35  LEU35       0.0284
     31  CG        37.6340   27.5450   48.4510 C.3    35  LEU35       0.0019
     32  CD1       37.1480   27.3690   47.0130 C.3    35  LEU35       0.0001
     33  CD2       38.0230   29.0100   48.6560 C.3    35  LEU35       0.0001
     34  N         35.7790   25.6210   52.7990 N.am   36  GLY36      -0.1942
     35  CA        34.6690   25.3390   53.7140 C.3    36  GLY36       0.2014
     36  C         33.4500   24.8450   52.9660 C.2    36  GLY36       0.2639
     37  O         32.3460   25.3210   53.1640 O.2    36  GLY36      -0.2714
     38  N         33.6610   23.8720   52.0870 N.am   37  LEU37      -0.1963
     39  CA        32.6610   23.4830   51.1050 C.3    37  LEU37       0.1713
     40  C         32.3950   21.9800   51.1880 C.2    37  LEU37       0.2458
     41  O         32.7130   21.2590   50.2290 O.2    37  LEU37      -0.2730
     42  CB        33.1960   23.8520   49.6970 C.3    37  LEU37       0.0310
     43  CG        32.7300   25.0940   48.9290 C.3    37  LEU37       0.0022
     44  CD1       32.5500   26.3390   49.7650 C.3    37  LEU37       0.0001
     45  CD2       33.6100   25.3890   47.6550 C.3    37  LEU37       0.0001
     46  N         31.8390   21.4970   52.3190 N.am   38  PRO38      -0.2716
     47  CA        31.7100   20.0330   52.5710 C.3    38  PRO38       0.1536
     48  C         30.7300   19.3220   51.6050 C.2    38  PRO38       0.2599
     49  O         30.8740   18.1180   51.3390 O.2    38  PRO38      -0.2715
     50  CB        31.2110   19.9710   54.0240 C.3    38  PRO38       0.0310
     51  CG        30.4460   21.2510   54.1930 C.3    38  PRO38       0.0237
     52  CD        31.2610   22.2860   53.4330 C.3    38  PRO38       0.0939
     53  N         29.7780   20.0850   51.0610 N.am   39  ASP39      -0.1958
     54  CA        28.8910   19.6030   49.9940 C.3    39  ASP39       0.1840
     55  C         29.4680   19.5490   48.5760 C.2    39  ASP39       0.2622
     56  O         28.8140   18.9950   47.7140 O.2    39  ASP39      -0.2715
     57  CB        27.6060   20.4190   49.9460 C.3    39  ASP39       0.1450
     58  CG        27.8620   21.9070   49.8690 C.2    39  ASP39       0.3671
     59  OD1       29.0430   22.3450   49.8240 O.co2  39  ASP39      -0.2456
     60  OD2       26.9230   22.7230   49.8170 O.co2  39  ASP39      -0.2456
     61  N         30.6730   20.0850   48.3280 N.am   40  TYR40      -0.1974
     62  CA        31.1330   20.2940   46.9330 C.3    40  TYR40       0.1639
     63  C         31.1850   19.0240   46.1020 C.2    40  TYR40       0.2290
     64  O         30.6550   18.9870   44.9990 O.2    40  TYR40      -0.2864
     65  CB        32.4880   21.0360   46.8310 C.3    40  TYR40       0.0560
     66  CG        32.8550   21.3640   45.4000 C.ar   40  TYR40      -0.0198
     67  CD1       32.3150   22.5000   44.7630 C.ar   40  TYR40      -0.0009
     68  CD2       33.7210   20.5410   44.6610 C.ar   40  TYR40      -0.0009
     69  CE1       32.6550   22.8220   43.4400 C.ar   40  TYR40       0.0417
     70  CE2       34.0520   20.8450   43.3450 C.ar   40  TYR40       0.0417
     71  CZ        33.5130   21.9930   42.7300 C.ar   40  TYR40       0.1957
     72  OH        33.8100   22.2850   41.4110 O.3    40  TYR40      -0.2866
     73  N         27.9390   17.3810   45.0560 N.3    43  ILE43      -0.1245
     74  CA        27.2110   17.9390   43.9080 C.3    43  ILE43       0.1561
     75  C         27.9680   17.8050   42.5930 C.2    43  ILE43       0.2260
     76  O         27.3630   17.5410   41.5630 O.2    43  ILE43      -0.2867
     77  CB        26.8280   19.4270   44.1500 C.3    43  ILE43       0.0252
     78  CG1       25.6640   19.5120   45.1110 C.3    43  ILE43       0.0019
     79  CG2       26.3680   20.1560   42.8600 C.3    43  ILE43       0.0019
     80  CD1       25.8550   18.7720   46.3550 C.3    43  ILE43       0.0001
     81  N         30.6270   25.1580   37.9710 N.3    75  CYS75      -0.1221
     82  CA        30.5880   26.3770   38.6850 C.3    75  CYS75       0.1808
     83  C         29.1550   26.9100   38.7200 C.2    75  CYS75       0.2601
     84  O         28.6580   27.2740   39.7820 O.2    75  CYS75      -0.2717
     85  CB        31.6150   27.3610   38.1150 C.3    75  CYS75       0.0970
     86  SG        31.6310   29.0000   38.8900 S.3    75  CYS75      -0.0800
     87  N         28.4580   26.9160   37.5890 N.am   76  TYR76      -0.1962
     88  CA        27.0720   27.3850   37.6250 C.3    76  TYR76       0.1771
     89  C         26.1400   26.4710   38.4170 C.2    76  TYR76       0.2619
     90  O         25.1950   26.9380   39.0100 O.2    76  TYR76      -0.2715
     91  CB        26.5080   27.5430   36.2090 C.3    76  TYR76       0.0574
     92  CG        27.3580   28.3270   35.2570 C.ar   76  TYR76      -0.0198
     93  CD1       27.8860   29.6050   35.6260 C.ar   76  TYR76      -0.0009
     94  CD2       27.6230   27.8260   33.9680 C.ar   76  TYR76      -0.0009
     95  CE1       28.6630   30.3150   34.7530 C.ar   76  TYR76       0.0417
     96  CE2       28.4070   28.5450   33.0970 C.ar   76  TYR76       0.0417
     97  CZ        28.9390   29.7960   33.5110 C.ar   76  TYR76       0.1957
     98  OH        29.6990   30.5370   32.6600 O.3    76  TYR76      -0.2866
     99  N         26.3860   25.1550   38.3710 N.am   77  ILE77      -0.1963
    100  CA        25.5530   24.1970   39.0760 C.3    77  ILE77       0.1727
    101  C         25.7550   24.2390   40.6110 C.2    77  ILE77       0.2616
    102  O         24.8060   24.2110   41.3480 O.2    77  ILE77      -0.2715
    103  CB        25.8070   22.7310   38.4990 C.3    77  ILE77       0.0290
    104  CG1       25.2230   22.5900   37.1010 C.3    77  ILE77       0.0022
    105  CG2       25.2390   21.5970   39.4470 C.3    77  ILE77       0.0023
    106  CD1       25.7030   21.3470   36.4360 C.3    77  ILE77       0.0001
    107  N         26.9890   24.2340   41.0840 N.am   78  TYR78      -0.1960
    108  CA        27.2410   24.2440   42.5170 C.3    78  TYR78       0.1771
    109  C         26.9010   25.5860   43.2260 C.2    78  TYR78       0.2620
    110  O         26.2930   25.6160   44.2970 O.2    78  TYR78      -0.2715
    111  CB        28.7060   23.8610   42.7990 C.3    78  TYR78       0.0574
    112  CG        28.9940   23.9830   44.2820 C.ar   78  TYR78      -0.0198
    113  CD1       28.5250   22.9990   45.1750 C.ar   78  TYR78      -0.0009
    114  CD2       29.6610   25.1200   44.8080 C.ar   78  TYR78      -0.0009
    115  CE1       28.7430   23.1100   46.5350 C.ar   78  TYR78       0.0417
    116  CE2       29.8920   25.2420   46.1730 C.ar   78  TYR78       0.0417
    117  CZ        29.4260   24.2400   47.0320 C.ar   78  TYR78       0.1957
    118  OH        29.5850   24.3570   48.3860 O.3    78  TYR78      -0.2866
    119  N         27.3360   26.6940   42.6280 N.am   79  ASN79      -0.1958
    120  CA        27.2870   28.0210   43.2780 C.3    79  ASN79       0.1819
    121  C         25.9140   28.6850   43.1820 C.2    79  ASN79       0.2621
    122  O         25.0940   28.3460   42.3020 O.2    79  ASN79      -0.2715
    123  CB        28.3890   28.9100   42.7020 C.3    79  ASN79       0.1195
    124  CG        29.7950   28.4000   43.0690 C.2    79  ASN79       0.2630
    125  OD1       30.1660   28.4390   44.2210 O.2    79  ASN79      -0.2716
    126  ND2       30.5590   27.9050   42.0800 N.am   79  ASN79      -0.0877
    127  N         25.6470   29.5750   44.1160 N.am   80  LYS80      -0.1964
    128  CA        24.4120   30.3910   44.1130 C.3    80  LYS80       0.1713
    129  C         24.4520   31.3320   42.9540 C.2    80  LYS80       0.2458
    130  O         25.5100   31.7880   42.6450 O.2    80  LYS80      -0.2730
    131  CB        24.2740   31.1910   45.4160 C.3    80  LYS80       0.0311
    132  CG        24.1390   30.2900   46.6620 C.3    80  LYS80       0.0038
    133  CD        23.4390   31.0930   47.7950 C.3    80  LYS80       0.0206
    134  CE        23.6610   30.5410   49.2080 C.3    80  LYS80       0.1093
    135  NZ        23.2200   29.1200   49.4370 N.3    80  LYS80      -0.1314
    136  N         23.3220   31.5920   42.2920 N.am   81  PRO81      -0.2716
    137  CA        23.2760   32.5110   41.1440 C.3    81  PRO81       0.1536
    138  C         23.9340   33.8810   41.4170 C.2    81  PRO81       0.2599
    139  O         24.4690   34.4950   40.4690 O.2    81  PRO81      -0.2715
    140  CB        21.7460   32.7170   40.9260 C.3    81  PRO81       0.0310
    141  CG        21.1130   31.4170   41.4030 C.3    81  PRO81       0.0237
    142  CD        21.9810   31.0260   42.5890 C.3    81  PRO81       0.0939
    143  N         23.8900   34.3290   42.6780 N.am   82  THR82      -0.1937
    144  CA        24.3310   35.6900   43.0700 C.3    82  THR82       0.2028
    145  C         25.8450   35.7430   43.4080 C.2    82  THR82       0.2642
    146  O         26.3910   36.8080   43.7130 O.2    82  THR82      -0.2714
    147  CB        23.5280   36.1730   44.3240 C.3    82  THR82       0.1808
    148  OG1       23.4040   35.0760   45.2360 O.3    82  THR82      -0.2208
    149  CG2       22.0560   36.4310   43.9980 C.3    82  THR82       0.0379
    150  N         26.4970   34.5880   43.4190 N.am   83  ASP83      -0.1957
    151  CA        27.9230   34.5060   43.7730 C.3    83  ASP83       0.1840
    152  C         28.7750   35.2080   42.7270 C.2    83  ASP83       0.2622
    153  O         28.4950   35.1230   41.5370 O.2    83  ASP83      -0.2715
    154  CB        28.3480   33.0380   43.9350 C.3    83  ASP83       0.1450
    155  CG        27.8090   32.4170   45.1990 C.2    83  ASP83       0.3671
    156  OD1       27.4170   33.1940   46.1020 O.co2  83  ASP83      -0.2456
    157  OD2       27.7340   31.1660   45.3980 O.co2  83  ASP83      -0.2456
    158  N         29.7690   35.9640   43.1630 N.am   84  ASP84      -0.1957
    159  CA        30.7450   36.5480   42.2180 C.3    84  ASP84       0.1840
    160  C         31.4310   35.5320   41.2800 C.2    84  ASP84       0.2621
    161  O         31.6240   35.8220   40.0970 O.2    84  ASP84      -0.2715
    162  CB        31.8140   37.3330   42.9880 C.3    84  ASP84       0.1450
    163  CG        31.2330   38.5370   43.6750 C.2    84  ASP84       0.3671
    164  OD1       30.0610   38.8720   43.3730 O.co2  84  ASP84      -0.2456
    165  OD2       31.8620   39.1920   44.5340 O.co2  84  ASP84      -0.2456
    166  N         31.7630   34.3480   41.8100 N.am   85  ILE85      -0.1977
    167  CA        32.3550   33.2860   40.9910 C.3    85  ILE85       0.1596
    168  C         31.5140   32.9980   39.7200 C.2    85  ILE85       0.2287
    169  O         32.0550   32.6520   38.6820 O.2    85  ILE85      -0.2864
    170  CB        32.6220   32.0140   41.8210 C.3    85  ILE85       0.0276
    171  CG1       33.4840   31.0340   41.0160 C.3    85  ILE85       0.0022
    172  CG2       31.3200   31.2860   42.1820 C.3    85  ILE85       0.0022
    173  CD1       34.7110   30.7200   41.5890 C.3    85  ILE85       0.0001
    174  N         29.6530   35.1700   37.9690 N.3    87  LEU87      -0.1245
    175  CA        29.9340   36.2530   37.0460 C.3    87  LEU87       0.1561
    176  C         31.3250   36.1020   36.4380 C.2    87  LEU87       0.2260
    177  O         31.5120   36.4010   35.2930 O.2    87  LEU87      -0.2867
    178  CB        29.9190   37.5850   37.8060 C.3    87  LEU87       0.0270
    179  CG        28.7890   38.5980   37.6650 C.3    87  LEU87       0.0019
    180  CD1       27.4140   37.9050   37.6410 C.3    87  LEU87       0.0001
    181  CD2       28.8510   39.6160   38.8450 C.3    87  LEU87       0.0001
@<TRIPOS>BOND
     1    98    97    1
     2    96    97   ar
     3    96    94   ar
     4    97    95   ar
     5    94    92   ar
     6    95    93   ar
     7    92    93   ar
     8    92    91    1
     9   177   176    2
    10    91    88    1
    11   106   104    1
    12   176   175    1
    13    12    13    1
    14    12     9    1
    15   175   178    1
    16   175   174    1
    17   104   103    1
    18    13    15   ar
    19    13    14   ar
    20    11    10    2
    21    15    17   ar
    22    14    16   ar
    23    16    18   ar
    24    17    18   ar
    25    87    88    1
    26    87    83   am
    27    88    89    1
    28   180   179    1
    29   179   178    1
    30   179   181    1
    31    81    82    1
    32    10     9    1
    33    85    82    1
    34    85    86    1
    35     9     8    1
    36    99    89   am
    37    99   100    1
    38    89    90    2
    39   103   100    1
    40   103   105    1
    41   169   168    2
    42    82    83    1
    43    83    84    2
    44   100   101    1
    45     8     3   am
    46   168   167    1
    47   161   160    2
    48     7     1    1
    49     7     6    1
    50     3     4    2
    51     3     2    1
    52   139   138    2
    53   101   107   am
    54   101   102    2
    55     1     2    1
    56   140   137    1
    57   140   141    1
    58   167   166    1
    59   167   170    1
    60   171   173    1
    61   171   170    1
    62   107   108    1
    63   137   138    1
    64   137   136    1
    65   160   166   am
    66   160   159    1
    67     2     5    1
    68     6     5    1
    69   141   142    1
    70    72    71    1
    71   138   143   am
    72   153   152    2
    73    76    75    2
    74   170   172    1
    75   126   124   am
    76   159   162    1
    77   159   158    1
    78   136   142    1
    79   136   129   am
    80   122   121    2
    81    25    23    1
    82   108   111    1
    83   108   109    1
    84    75    74    1
    85   119   109   am
    86   119   120    1
    87   130   129    2
    88   143   144    1
    89   123   124    1
    90   123   120    1
    91    19    20    1
    92   152   158   am
    93   152   151    1
    94    71    70   ar
    95    71    69   ar
    96   111   112    1
    97    79    77    1
    98   129   128    1
    99   162   163    1
   100   124   125    2
   101   144   145    1
   102   144   147    1
   103   121   120    1
   104   121   127   am
   105   109   110    2
   106    70    68   ar
   107   164   163   ar
   108   145   150   am
   109   145   146    2
   110   150   151    1
   111    69    67   ar
   112   163   165   ar
   113    23    20    1
   114    23    24    1
   115   151   154    1
   116    20    21    1
   117    74    77    1
   118    74    73    1
   119   154   155    1
   120   149   147    1
   121   128   127    1
   122   128   131    1
   123    77    78    1
   124   112   114   ar
   125   112   113   ar
   126   147   148    1
   127    68    66   ar
   128    67    66   ar
   129   114   116   ar
   130    64    63    2
   131    21    22    2
   132    78    80    1
   133   113   115   ar
   134   155   157   ar
   135   155   156   ar
   136    66    65    1
   137   131   132    1
   138    63    62    1
   139   116   117   ar
   140   115   117   ar
   141   132   133    1
   142    65    62    1
   143    62    61    1
   144    32    31    1
   145   117   118    1
   146    45    43    1
   147    56    55    2
   148   133   134    1
   149    61    55   am
   150    31    33    1
   151    31    30    1
   152    55    54    1
   153    43    42    1
   154    43    44    1
   155   134   135    1
   156    30    27    1
   157    42    39    1
   158    60    58   ar
   159    59    58   ar
   160    58    57    1
   161    57    54    1
   162    54    53    1
   163    41    40    2
   164    27    26    1
   165    27    28    1
   166    53    48   am
   167    39    40    1
   168    39    38    1
   169    40    46   am
   170    49    48    2
   171    48    47    1
   172    29    28    2
   173    28    34   am
   174    38    36   am
   175    46    47    1
   176    46    52    1
   177    47    50    1
   178    34    35    1
   179    36    37    2
   180    36    35    1
   181    52    51    1
   182    50    51    1
