@<TRIPOS>MOLECULE
tmp/2dvsB00.pdb
 104 99 0 0 0
SMALL
GASTEIGER

@<TRIPOS>ATOM
      1  N         40.5420   31.7430   40.3540 N.3    25  PRO25      -0.2102
      2  CA        39.7440   30.6600   40.9810 C.3    25  PRO25       0.1504
      3  C         39.7660   29.3410   40.2390 C.2    25  PRO25       0.2575
      4  O         39.3830   28.3190   40.8270 O.2    25  PRO25      -0.2718
      5  CB        38.3010   31.2210   40.9830 C.3    25  PRO25       0.0282
      6  CG        38.4710   32.7090   40.9700 C.3    25  PRO25       0.0208
      7  CD        39.6910   32.9030   40.0390 C.3    25  PRO25       0.0893
      8  N         40.1950   29.3670   38.9710 N.am   26  PHE26      -0.1977
      9  CA        40.0140   28.2460   38.0470 C.3    26  PHE26       0.1639
     10  C         41.3140   27.5860   37.6440 C.2    26  PHE26       0.2290
     11  O         41.3180   26.6260   36.8510 O.2    26  PHE26      -0.2864
     12  CB        39.3070   28.7140   36.7710 C.3    26  PHE26       0.0560
     13  CG        37.9530   29.3000   37.0070 C.ar   26  PHE26      -0.0200
     14  CD1       37.7670   30.6890   37.0430 C.ar   26  PHE26      -0.0042
     15  CD2       36.8590   28.4700   37.1800 C.ar   26  PHE26      -0.0042
     16  CE1       36.4820   31.2400   37.2570 C.ar   26  PHE26      -0.0003
     17  CE2       35.5670   29.0010   37.4040 C.ar   26  PHE26      -0.0003
     18  CZ        35.3900   30.3900   37.4400 C.ar   26  PHE26      -0.0000
     19  N         39.4130   22.8480   42.4750 N.3    30  VAL30      -0.1245
     20  CA        38.7440   23.4040   43.6270 C.3    30  VAL30       0.1561
     21  C         39.1890   22.5940   44.8520 C.2    30  VAL30       0.2260
     22  O         39.1430   21.3690   44.8510 O.2    30  VAL30      -0.2867
     23  CB        37.1980   23.3370   43.4600 C.3    30  VAL30       0.0252
     24  CG1       36.5010   23.7690   44.7420 C.3    30  VAL30       0.0019
     25  CG2       36.7550   24.2130   42.2780 C.3    30  VAL30       0.0019
     26  N         38.3040   25.8780   50.8920 N.3    35  LEU35      -0.1245
     27  CA        37.1320   26.7250   50.6800 C.3    35  LEU35       0.1561
     28  C         35.9080   26.4320   51.5720 C.2    35  LEU35       0.2260
     29  O         34.9080   27.1490   51.4910 O.2    35  LEU35      -0.2867
     30  CB        36.7460   26.7080   49.1980 C.3    35  LEU35       0.0270
     31  CG        37.7390   27.2900   48.1870 C.3    35  LEU35       0.0019
     32  CD1       37.0760   27.3480   46.8070 C.3    35  LEU35       0.0001
     33  CD2       38.2210   28.6880   48.5940 C.3    35  LEU35       0.0001
     34  N         33.7710   23.7830   51.7900 N.3    37  LEU37      -0.1245
     35  CA        32.7370   23.4120   50.8300 C.3    37  LEU37       0.1561
     36  C         32.4590   21.9270   50.9270 C.2    37  LEU37       0.2260
     37  O         32.7390   21.2080   49.9530 O.2    37  LEU37      -0.2867
     38  CB        33.2580   23.6770   49.4180 C.3    37  LEU37       0.0270
     39  CG        32.8300   24.9280   48.6470 C.3    37  LEU37       0.0019
     40  CD1       32.6430   26.1710   49.4750 C.3    37  LEU37       0.0001
     41  CD2       33.8220   25.1800   47.5100 C.3    37  LEU37       0.0001
     42  N         30.8300   19.9470   48.0130 N.3    40  TYR40      -0.1241
     43  CA        31.3370   20.1640   46.6470 C.3    40  TYR40       0.1605
     44  C         31.4040   18.9000   45.8210 C.2    40  TYR40       0.2264
     45  O         30.8840   18.8420   44.7030 O.2    40  TYR40      -0.2867
     46  CB        32.7170   20.8470   46.6160 C.3    40  TYR40       0.0534
     47  CG        33.0680   21.2480   45.2000 C.ar   40  TYR40      -0.0201
     48  CD1       32.4620   22.3570   44.6000 C.ar   40  TYR40      -0.0009
     49  CD2       33.9350   20.4840   44.4430 C.ar   40  TYR40      -0.0009
     50  CE1       32.7630   22.7270   43.2820 C.ar   40  TYR40       0.0417
     51  CE2       34.2360   20.8340   43.1150 C.ar   40  TYR40       0.0417
     52  CZ        33.6410   21.9540   42.5480 C.ar   40  TYR40       0.1957
     53  OH        33.9460   22.2960   41.2540 O.3    40  TYR40      -0.2866
     54  N         30.7730   25.1900   37.7850 N.3    75  CYS75      -0.1235
     55  CA        30.6710   26.4200   38.5270 C.3    75  CYS75       0.1677
     56  C         29.2110   26.9130   38.6020 C.2    75  CYS75       0.2270
     57  O         28.7130   27.2480   39.6780 O.2    75  CYS75      -0.2867
     58  CB        31.6220   27.4410   37.8830 C.3    75  CYS75       0.0956
     59  SG        31.6370   29.0370   38.6820 S.3    75  CYS75      -0.0801
     60  N         27.1740   24.2790   40.8710 N.3    78  TYR78      -0.1227
     61  CA        27.4750   24.3110   42.3080 C.3    78  TYR78       0.1736
     62  C         27.1000   25.6140   43.0160 C.2    78  TYR78       0.2595
     63  O         26.4800   25.6000   44.0890 O.2    78  TYR78      -0.2718
     64  CB        28.9440   23.9630   42.6130 C.3    78  TYR78       0.0548
     65  CG        29.1920   23.9730   44.1060 C.ar   78  TYR78      -0.0200
     66  CD1       28.8000   22.8880   44.9160 C.ar   78  TYR78      -0.0009
     67  CD2       29.7680   25.0880   44.7240 C.ar   78  TYR78      -0.0009
     68  CE1       29.0080   22.9120   46.2920 C.ar   78  TYR78       0.0417
     69  CE2       29.9560   25.1230   46.1000 C.ar   78  TYR78       0.0417
     70  CZ        29.5850   24.0390   46.8720 C.ar   78  TYR78       0.1957
     71  OH        29.7760   24.0890   48.2400 O.3    78  TYR78      -0.2866
     72  N         27.4970   26.7370   42.4150 N.am   79  ASN79      -0.1960
     73  CA        27.4580   28.0310   43.1000 C.3    79  ASN79       0.1819
     74  C         26.0780   28.6840   43.0160 C.2    79  ASN79       0.2621
     75  O         25.2860   28.3190   42.1600 O.2    79  ASN79      -0.2715
     76  CB        28.5470   28.9490   42.5390 C.3    79  ASN79       0.1195
     77  CG        29.9590   28.4510   42.8890 C.2    79  ASN79       0.2630
     78  OD1       30.4050   28.5800   44.0220 O.2    79  ASN79      -0.2716
     79  ND2       30.6410   27.8580   41.9180 N.am   79  ASN79      -0.0877
     80  N         25.8140   29.6390   43.8940 N.am   80  LYS80      -0.1977
     81  CA        24.5580   30.4230   43.8910 C.3    80  LYS80       0.1596
     82  C         24.5450   31.3980   42.7180 C.2    80  LYS80       0.2287
     83  O         25.5940   31.9170   42.3730 O.2    80  LYS80      -0.2864
     84  CB        24.3940   31.2010   45.2020 C.3    80  LYS80       0.0298
     85  CG        24.2200   30.3080   46.4430 C.3    80  LYS80       0.0038
     86  CD        23.7790   31.1420   47.6780 C.3    80  LYS80       0.0206
     87  CE        24.1590   30.4780   49.0380 C.3    80  LYS80       0.1093
     88  NZ        23.4180   29.2060   49.4070 N.3    80  LYS80      -0.1314
     89  N         26.6490   34.5970   43.3220 N.3    83  ASP83      -0.1239
     90  CA        28.0950   34.5280   43.5910 C.3    83  ASP83       0.1674
     91  C         28.9030   35.1990   42.4960 C.2    83  ASP83       0.2266
     92  O         28.6350   34.9820   41.2950 O.2    83  ASP83      -0.2867
     93  CB        28.5400   33.0740   43.7050 C.3    83  ASP83       0.1410
     94  CG        27.9540   32.3800   44.9240 C.2    83  ASP83       0.3668
     95  OD1       27.5040   33.0990   45.8510 O.co2  83  ASP83      -0.2456
     96  OD2       27.9260   31.1290   45.0650 O.co2  83  ASP83      -0.2456
     97  N         31.8170   34.3660   41.5770 N.3    85  ILE85      -0.1245
     98  CA        32.4890   33.3550   40.7750 C.3    85  ILE85       0.1561
     99  C         31.7010   33.0270   39.4970 C.2    85  ILE85       0.2260
    100  O         32.2890   32.6890   38.4680 O.2    85  ILE85      -0.2867
    101  CB        32.7910   32.0890   41.5910 C.3    85  ILE85       0.0252
    102  CG1       33.6630   31.1740   40.7690 C.3    85  ILE85       0.0019
    103  CG2       31.5050   31.3620   42.0200 C.3    85  ILE85       0.0019
    104  CD1       34.6980   30.5180   41.5230 C.3    85  ILE85       0.0001
@<TRIPOS>BOND
     1    12    13    1
     2    12     9    1
     3    11    10    2
     4    13    14   ar
     5    13    15   ar
     6    14    16   ar
     7    15    17   ar
     8    16    18   ar
     9    17    18   ar
    10    10     9    1
    11    54    55    1
    12    58    55    1
    13    58    59    1
    14     9     8    1
    15   100    99    2
    16    55    56    1
    17    56    57    2
    18     8     3   am
    19    99    98    1
    20     7     1    1
    21     7     6    1
    22     3     4    2
    23     3     2    1
    24     1     2    1
    25   102   104    1
    26   102   101    1
    27    98    97    1
    28    98   101    1
    29    60    61    1
    30     6     5    1
    31     2     5    1
    32    53    52    1
    33    92    91    2
    34   101   103    1
    35    79    77   am
    36    75    74    2
    37    25    23    1
    38    61    64    1
    39    61    62    1
    40    83    82    2
    41    72    62   am
    42    72    73    1
    43    19    20    1
    44    91    90    1
    45    76    77    1
    46    76    73    1
    47    52    51   ar
    48    52    50   ar
    49    64    65    1
    50    82    81    1
    51    77    78    2
    52    62    63    2
    53    74    73    1
    54    74    80   am
    55    51    49   ar
    56    50    48   ar
    57    89    90    1
    58    23    20    1
    59    23    24    1
    60    90    93    1
    61    20    21    1
    62    93    94    1
    63    81    80    1
    64    81    84    1
    65    65    67   ar
    66    65    66   ar
    67    49    47   ar
    68    48    47   ar
    69    45    44    2
    70    67    69   ar
    71    22    21    2
    72    66    68   ar
    73    94    96   ar
    74    94    95   ar
    75    47    46    1
    76    84    85    1
    77    44    43    1
    78    69    70   ar
    79    68    70   ar
    80    85    86    1
    81    46    43    1
    82    43    42    1
    83    32    31    1
    84    70    71    1
    85    41    39    1
    86    86    87    1
    87    31    33    1
    88    31    30    1
    89    39    38    1
    90    39    40    1
    91    87    88    1
    92    30    27    1
    93    38    35    1
    94    37    36    2
    95    27    26    1
    96    27    28    1
    97    35    36    1
    98    35    34    1
    99    29    28    2
