@<TRIPOS>MOLECULE
tmp/2dvuB00.pdb
 114 110 0 0 0
SMALL
GASTEIGER

@<TRIPOS>ATOM
      1  N         57.2310   54.3080   60.6290 N.3     8  GLU8       -0.1245
      2  CA        56.6260   52.9890   60.4600 C.3     8  GLU8        0.1567
      3  C         56.9380   52.3760   61.8140 C.2     8  GLU8        0.2260
      4  O         57.7850   51.5000   61.9500 O.2     8  GLU8       -0.2867
      5  CB        57.2330   52.1490   59.3310 C.3     8  GLU8        0.0388
      6  CG        56.3970   50.8690   59.1410 C.3     8  GLU8        0.1160
      7  CD        56.8100   49.9920   57.9680 C.2     8  GLU8        0.3649
      8  OE1       56.6380   48.7650   58.0810 O.co2   8  GLU8       -0.2457
      9  OE2       57.2810   50.5140   56.9390 O.co2   8  GLU8       -0.2457
     10  N         54.9360   50.7950   65.0730 N.3    10  HIS10      -0.1241
     11  CA        53.6520   50.2370   65.4630 C.3    10  HIS10       0.1621
     12  C         53.3480   50.0160   66.9340 C.2    10  HIS10       0.2264
     13  O         54.2390   49.9330   67.7780 O.2    10  HIS10      -0.2867
     14  CB        53.4600   48.9130   64.7210 C.3    10  HIS10       0.0745
     15  CG        53.7680   48.9960   63.2590 C.ar   10  HIS10       0.0817
     16  ND1       52.9460   49.6430   62.3610 N.ar   10  HIS10      -0.2268
     17  CD2       54.8170   48.5290   62.5400 C.ar   10  HIS10       0.1154
     18  CE1       53.4740   49.5700   61.1520 C.ar   10  HIS10       0.1986
     19  NE2       54.6100   48.9010   61.2330 N.ar   10  HIS10      -0.2212
     20  N         49.6480   39.8820   65.6280 N.3    20  SER20      -0.1217
     21  CA        51.1040   39.8160   65.5480 C.3    20  SER20       0.1889
     22  C         51.6860   38.5460   66.1690 C.2    20  SER20       0.2288
     23  O         52.8950   38.3100   66.1060 O.2    20  SER20      -0.2866
     24  CB        51.7090   41.0500   66.2250 C.3    20  SER20       0.2089
     25  OG        51.2260   42.2460   65.6280 O.3    20  SER20      -0.2183
     26  N         53.9650   36.0480   64.0400 N.3    23  PHE23      -0.1227
     27  CA        55.1190   36.6030   63.3420 C.3    23  PHE23       0.1736
     28  C         56.4550   36.4550   64.0640 C.2    23  PHE23       0.2595
     29  O         57.4980   36.8340   63.5290 O.2    23  PHE23      -0.2718
     30  CB        54.8640   38.0710   63.0000 C.3    23  PHE23       0.0547
     31  CG        53.7660   38.2710   61.9890 C.ar   23  PHE23      -0.0202
     32  CD1       52.5440   38.8240   62.3630 C.ar   23  PHE23      -0.0042
     33  CD2       53.9570   37.9080   60.6570 C.ar   23  PHE23      -0.0042
     34  CE1       51.5280   39.0130   61.4260 C.ar   23  PHE23      -0.0003
     35  CE2       52.9480   38.0920   59.7130 C.ar   23  PHE23      -0.0003
     36  CZ        51.7300   38.6460   60.0980 C.ar   23  PHE23      -0.0000
     37  N         56.4230   35.9090   65.2750 N.am   24  VAL24      -0.1980
     38  CA        57.6420   35.6850   66.0480 C.3    24  VAL24       0.1595
     39  C         57.5140   34.3750   66.8120 C.2    24  VAL24       0.2287
     40  O         56.4100   33.9370   67.1240 O.2    24  VAL24      -0.2864
     41  CB        57.9130   36.8190   67.0690 C.3    24  VAL24       0.0276
     42  CG1       58.1810   38.1260   66.3430 C.3    24  VAL24       0.0022
     43  CG2       56.7330   36.9580   68.0210 C.3    24  VAL24       0.0022
     44  N         49.4360   45.1300   62.1450 N.3    61  ALA61      -0.1245
     45  CA        48.8270   44.5030   60.9700 C.3    61  ALA61       0.1562
     46  C         48.4700   43.0280   61.1190 C.2    61  ALA61       0.2260
     47  O         49.0950   42.3040   61.8950 O.2    61  ALA61      -0.2867
     48  CB        49.7620   44.6740   59.7750 C.3    61  ALA61       0.0290
     49  N         51.0390   49.9430   53.7160 N.3   164  HIS164     -0.1241
     50  CA        51.7920   48.9670   54.4980 C.3   164  HIS164      0.1621
     51  C         51.4880   47.5290   54.0560 C.2   164  HIS164      0.2264
     52  O         50.4420   47.2620   53.4660 O.2   164  HIS164     -0.2867
     53  CB        51.4340   49.1860   55.9740 C.3   164  HIS164      0.0745
     54  CG        52.2920   48.4290   56.9320 C.ar  164  HIS164      0.0817
     55  ND1       51.9480   47.1850   57.4100 N.ar  164  HIS164     -0.2268
     56  CD2       53.4800   48.7400   57.5060 C.ar  164  HIS164      0.1154
     57  CE1       52.8850   46.7620   58.2400 C.ar  164  HIS164      0.1986
     58  NE2       53.8250   47.6860   58.3170 N.ar  164  HIS164     -0.2212
     59  N         57.6560   39.2370   56.3290 N.3   185  PRO185     -0.2116
     60  CA        58.7820   40.1140   56.0080 C.3   185  PRO185      0.1372
     61  C         59.8750   39.5350   55.1150 C.2   185  PRO185      0.2244
     62  O         60.5830   40.2860   54.4500 O.2   185  PRO185     -0.2868
     63  CB        59.3040   40.5240   57.3870 C.3   185  PRO185      0.0268
     64  CG        59.0150   39.3160   58.2210 C.3   185  PRO185      0.0207
     65  CD        57.6100   38.9480   57.7750 C.3   185  PRO185      0.0892
     66  N         55.4690   39.8740   51.9730 N.3   189  PHE189     -0.1241
     67  CA        55.0320   41.2400   52.2670 C.3   189  PHE189      0.1605
     68  C         55.3730   42.2160   51.1400 C.2   189  PHE189      0.2264
     69  O         54.5560   43.0540   50.7630 O.2   189  PHE189     -0.2867
     70  CB        55.6860   41.7620   53.5570 C.3   189  PHE189      0.0534
     71  CG        54.9490   41.3990   54.8240 C.ar  189  PHE189     -0.0203
     72  CD1       55.4140   41.8540   56.0560 C.ar  189  PHE189     -0.0042
     73  CD2       53.7970   40.6170   54.7910 C.ar  189  PHE189     -0.0042
     74  CE1       54.7440   41.5390   57.2410 C.ar  189  PHE189     -0.0003
     75  CE2       53.1160   40.2920   55.9680 C.ar  189  PHE189     -0.0003
     76  CZ        53.5890   40.7540   57.1950 C.ar  189  PHE189     -0.0000
     77  N         60.1290   49.4990   53.8160 N.3   218  HIS218     -0.1241
     78  CA        61.0980   48.4990   53.3750 C.3   218  HIS218      0.1621
     79  C         61.7780   48.8530   52.0540 C.2   218  HIS218      0.2264
     80  O         61.9660   48.0030   51.1830 O.2   218  HIS218     -0.2867
     81  CB        60.3770   47.1510   53.2980 C.3   218  HIS218      0.0745
     82  CG        59.3840   46.9660   54.4050 C.ar  218  HIS218      0.0817
     83  ND1       58.0290   47.1490   54.2280 N.ar  218  HIS218     -0.2268
     84  CD2       59.5630   46.7590   55.7320 C.ar  218  HIS218      0.1154
     85  CE1       57.4180   47.0690   55.3990 C.ar  218  HIS218      0.1986
     86  NE2       58.3270   46.8350   56.3280 N.ar  218  HIS218     -0.2212
     87  N         60.4310   50.2840   61.9150 N.3   287  ASP287     -0.1239
     88  CA        59.5100   49.1570   61.9000 C.3   287  ASP287      0.1674
     89  C         59.4330   48.5610   63.3060 C.2   287  ASP287      0.2266
     90  O         59.0730   47.3970   63.4870 O.2   287  ASP287     -0.2867
     91  CB        59.9230   48.0800   60.8940 C.3   287  ASP287      0.1410
     92  CG        58.7230   47.3720   60.2940 C.2   287  ASP287      0.3668
     93  OD1       57.5810   47.7360   60.6570 O.co2 287  ASP287     -0.2456
     94  OD2       58.9130   46.4640   59.4620 O.co2 287  ASP287     -0.2456
     95  N         58.9420   45.3740   65.5220 N.3   290  PHE290     -0.1227
     96  CA        59.3220   44.1830   64.7760 C.3   290  PHE290      0.1736
     97  C         60.8110   44.2350   64.4580 C.2   290  PHE290      0.2595
     98  O         61.4410   43.2110   64.1710 O.2   290  PHE290     -0.2718
     99  CB        58.4640   44.0960   63.5150 C.3   290  PHE290      0.0547
    100  CG        56.9880   44.0420   63.8100 C.ar  290  PHE290     -0.0202
    101  CD1       56.3990   42.8670   64.2680 C.ar  290  PHE290     -0.0042
    102  CD2       56.1970   45.1770   63.6740 C.ar  290  PHE290     -0.0042
    103  CE1       55.0400   42.8250   64.5900 C.ar  290  PHE290     -0.0003
    104  CE2       54.8380   45.1460   63.9920 C.ar  290  PHE290     -0.0003
    105  CZ        54.2610   43.9670   64.4520 C.ar  290  PHE290     -0.0000
    106  N         61.3620   45.4430   64.5300 N.am  291  GLU291     -0.1979
    107  CA        62.7830   45.6880   64.3100 C.3   291  GLU291      0.1602
    108  C         63.2560   46.5020   65.5090 C.2   291  GLU291      0.2287
    109  O         62.4990   47.3070   66.0470 O.2   291  GLU291     -0.2864
    110  CB        63.0120   46.5110   63.0380 C.3   291  GLU291      0.0415
    111  CG        62.5790   45.8340   61.7540 C.3   291  GLU291      0.1163
    112  CD        63.4640   44.6670   61.3700 C.2   291  GLU291      0.3649
    113  OE1       63.1440   43.9960   60.3660 O.co2 291  GLU291     -0.2457
    114  OE2       64.4780   44.4190   62.0580 O.co2 291  GLU291     -0.2457
@<TRIPOS>BOND
     1    69    68    2
     2    68    67    1
     3    80    79    2
     4    66    67    1
     5    79    78    1
     6    67    70    1
     7    81    78    1
     8    81    82    1
     9    78    77    1
    10    52    51    2
    11    70    71    1
    12    49    50    1
    13    51    50    1
    14    83    82   ar
    15    83    85   ar
    16    82    84   ar
    17    62    61    2
    18    50    53    1
    19    73    71   ar
    20    73    75   ar
    21    71    72   ar
    22    61    60    1
    23    85    86   ar
    24    84    86   ar
    25    75    76   ar
    26    53    54    1
    27    60    59    1
    28    60    63    1
    29    72    74   ar
    30    59    65    1
    31    54    55   ar
    32    54    56   ar
    33     9     7   ar
    34    76    74   ar
    35    63    64    1
    36    55    57   ar
    37    56    58   ar
    38    65    64    1
    39     7     8   ar
    40     7     6    1
    41    57    58   ar
    42     6     5    1
    43     5     2    1
    44    94    92   ar
    45    35    36   ar
    46    35    33   ar
    47    48    45    1
    48    36    34   ar
    49    92    93   ar
    50    92    91    1
    51   113   112   ar
    52     2     1    1
    53     2     3    1
    54    33    31   ar
    55    91    88    1
    56    45    46    1
    57    45    44    1
    58    46    47    2
    59    18    19   ar
    60    18    16   ar
    61    19    17   ar
    62   112   111    1
    63   112   114   ar
    64    34    32   ar
    65   111   110    1
    66     3     4    2
    67    88    87    1
    68    88    89    1
    69    31    32   ar
    70    31    30    1
    71    16    15   ar
    72    17    15   ar
    73    30    27    1
    74   110   107    1
    75    15    14    1
    76    89    90    2
    77    27    26    1
    78    27    28    1
    79    99   100    1
    80    99    96    1
    81    29    28    2
    82   102   100   ar
    83   102   104   ar
    84   100   101   ar
    85   104   105   ar
    86    28    37   am
    87    98    97    2
    88   101   103   ar
    89   107   106    1
    90   107   108    1
    91   105   103   ar
    92    97   106   am
    93    97    96    1
    94    14    11    1
    95    96    95    1
    96    10    11    1
    97    37    38    1
    98    11    12    1
    99   108   109    2
   100    21    20    1
   101    21    22    1
   102    21    24    1
   103    25    24    1
   104    38    39    1
   105    38    41    1
   106    23    22    2
   107    42    41    1
   108    39    40    2
   109    12    13    2
   110    41    43    1
