@<TRIPOS>MOLECULE
tmp/2dvvA00.pdb
 148 145 0 0 0
SMALL
GASTEIGER

@<TRIPOS>ATOM
      1  N         31.4370   16.0500    9.2910 N.3    27  TRP27      -0.1228
      2  CA        31.8270   17.3910    8.8620 C.3    27  TRP27       0.1722
      3  C         33.2000   17.5790    8.2170 C.2    27  TRP27       0.2437
      4  O         33.3520   18.4280    7.3390 O.2    27  TRP27      -0.2733
      5  CB        31.6430   18.4060   10.0060 C.3    27  TRP27       0.0563
      6  CG        32.5870   18.2640   11.1550 C.ar   27  TRP27       0.0003
      7  CD1       32.3720   17.5810   12.3170 C.ar   27  TRP27       0.0946
      8  CD2       33.9030   18.8220   11.2550 C.ar   27  TRP27       0.0152
      9  NE1       33.4730   17.6790   13.1340 N.ar   27  TRP27      -0.2442
     10  CE2       34.4280   18.4350   12.5060 C.ar   27  TRP27       0.0810
     11  CE3       34.6910   19.6110   10.4050 C.ar   27  TRP27       0.0012
     12  CZ2       35.7070   18.8110   12.9320 C.ar   27  TRP27       0.0191
     13  CZ3       35.9650   19.9850   10.8280 C.ar   27  TRP27       0.0001
     14  CH2       36.4580   19.5820   12.0820 C.ar   27  TRP27       0.0015
     15  N         34.2200   16.8030    8.6290 N.am   28  PRO28      -0.2718
     16  CA        35.5250   17.0070    7.9880 C.3    28  PRO28       0.1535
     17  C         35.5160   16.6330    6.5030 C.2    28  PRO28       0.2598
     18  O         36.4010   17.0270    5.7460 O.2    28  PRO28      -0.2715
     19  CB        36.4520   16.0890    8.7870 C.3    28  PRO28       0.0310
     20  CG        35.7940   16.0100   10.1300 C.3    28  PRO28       0.0237
     21  CD        34.3390   15.8540    9.7500 C.3    28  PRO28       0.0939
     22  N         34.5040   15.8760    6.0940 N.am   29  PHE29      -0.1974
     23  CA        34.4070   15.4090    4.7190 C.3    29  PHE29       0.1639
     24  C         33.3720   16.1280    3.8670 C.2    29  PHE29       0.2290
     25  O         33.1100   15.7250    2.7350 O.2    29  PHE29      -0.2864
     26  CB        34.1270   13.9030    4.7380 C.3    29  PHE29       0.0560
     27  CG        34.9980   13.1550    5.7070 C.ar   29  PHE29      -0.0200
     28  CD1       34.5460   12.8610    6.9910 C.ar   29  PHE29      -0.0042
     29  CD2       36.3100   12.8320    5.3680 C.ar   29  PHE29      -0.0042
     30  CE1       35.3890   12.2610    7.9250 C.ar   29  PHE29      -0.0003
     31  CE2       37.1590   12.2360    6.2910 C.ar   29  PHE29      -0.0003
     32  CZ        36.6990   11.9490    7.5760 C.ar   29  PHE29      -0.0000
     33  N         33.4960   19.2800    2.5850 N.3    31  LYS31      -0.1231
     34  CA        34.0780   20.0640    1.5020 C.3    31  LYS31       0.1678
     35  C         35.5110   19.6510    1.1770 C.2    31  LYS31       0.2434
     36  O         36.1600   18.9510    1.9550 O.2    31  LYS31      -0.2733
     37  CB        34.0560   21.5500    1.8790 C.3    31  LYS31       0.0284
     38  CG        32.6630   22.1700    1.9640 C.3    31  LYS31       0.0035
     39  CD        31.9720   22.1390    0.6080 C.3    31  LYS31       0.0206
     40  CE        30.7560   23.0520    0.5670 C.3    31  LYS31       0.1093
     41  NZ        29.7740   22.7540    1.6420 N.3    31  LYS31      -0.1314
     42  N         36.0210   20.0760    0.0110 N.am   32  PRO32      -0.2718
     43  CA        37.3920   19.7190   -0.3570 C.3    32  PRO32       0.1535
     44  C         38.3630   20.2020    0.7130 C.2    32  PRO32       0.2598
     45  O         38.1630   21.2620    1.3090 O.2    32  PRO32      -0.2715
     46  CB        37.5980   20.4550   -1.6800 C.3    32  PRO32       0.0310
     47  CG        36.2280   20.4790   -2.2670 C.3    32  PRO32       0.0237
     48  CD        35.3610   20.8180   -1.0780 C.3    32  PRO32       0.0939
     49  N         39.4030   19.4180    0.9670 N.am   33  VAL33      -0.1964
     50  CA        40.4010   19.8060    1.9500 C.3    33  VAL33       0.1727
     51  C         41.0850   21.0700    1.4480 C.2    33  VAL33       0.2616
     52  O         41.5900   21.1030    0.3260 O.2    33  VAL33      -0.2715
     53  CB        41.4670   18.7010    2.1360 C.3    33  VAL33       0.0290
     54  CG1       42.5770   19.1900    3.0710 C.3    33  VAL33       0.0023
     55  CG2       40.8200   17.4500    2.7110 C.3    33  VAL33       0.0023
     56  N         41.0730   22.1190    2.2640 N.am   34  ASP34      -0.1971
     57  CA        41.7300   23.3670    1.8900 C.3    34  ASP34       0.1709
     58  C         43.1060   23.2810    2.5340 C.2    34  ASP34       0.2293
     59  O         43.3170   23.7770    3.6400 O.2    34  ASP34      -0.2864
     60  CB        40.9750   24.5780    2.4460 C.3    34  ASP34       0.1436
     61  CG        41.4820   25.8890    1.8730 C.2    34  ASP34       0.3671
     62  OD1       42.6900   25.9750    1.5670 O.co2  34  ASP34      -0.2456
     63  OD2       40.6770   26.8350    1.7400 O.co2  34  ASP34      -0.2456
     64  N         44.7250   25.1770    6.0100 N.3    38  LEU38      -0.1245
     65  CA        45.0550   24.3330    7.1550 C.3    38  LEU38       0.1561
     66  C         46.5530   24.1900    7.4080 C.2    38  LEU38       0.2260
     67  O         46.9640   23.5650    8.3840 O.2    38  LEU38      -0.2867
     68  CB        44.4300   22.9520    6.9630 C.3    38  LEU38       0.0270
     69  CG        42.9010   22.9990    6.9060 C.3    38  LEU38       0.0019
     70  CD1       42.3680   21.7070    6.3310 C.3    38  LEU38       0.0001
     71  CD2       42.3480   23.2550    8.2970 C.3    38  LEU38       0.0001
     72  N         48.6090   22.5440    5.5660 N.3    40  LEU40      -0.1245
     73  CA        49.0410   21.2150    5.1280 C.3    40  LEU40       0.1561
     74  C         49.6680   21.3500    3.7450 C.2    40  LEU40       0.2260
     75  O         49.1300   20.8760    2.7490 O.2    40  LEU40      -0.2867
     76  CB        47.8370   20.2680    5.0750 C.3    40  LEU40       0.0270
     77  CG        46.9020   20.2980    6.2900 C.3    40  LEU40       0.0019
     78  CD1       45.7350   19.3430    6.0600 C.3    40  LEU40       0.0001
     79  CD2       47.6630   19.9210    7.5510 C.3    40  LEU40       0.0001
     80  N         50.0080   18.2630    1.4560 N.3    43  TYR43      -0.1241
     81  CA        48.8010   17.5060    1.1400 C.3    43  TYR43       0.1605
     82  C         48.6780   17.0590   -0.3120 C.2    43  TYR43       0.2264
     83  O         48.4320   15.8880   -0.5910 O.2    43  TYR43      -0.2867
     84  CB        47.5460   18.3010    1.5130 C.3    43  TYR43       0.0534
     85  CG        46.2940   17.4530    1.4820 C.ar   43  TYR43      -0.0201
     86  CD1       46.0220   16.5420    2.5030 C.ar   43  TYR43      -0.0009
     87  CD2       45.4110   17.5170    0.4040 C.ar   43  TYR43      -0.0009
     88  CE1       44.8990   15.7110    2.4480 C.ar   43  TYR43       0.0417
     89  CE2       44.2890   16.6890    0.3400 C.ar   43  TYR43       0.0417
     90  CZ        44.0430   15.7890    1.3630 C.ar   43  TYR43       0.1957
     91  OH        42.9510   14.9530    1.2830 O.3    43  TYR43      -0.2866
     92  N         39.1070   14.0010   -2.8380 N.3    51  MET51      -0.1245
     93  CA        37.6870   13.6960   -2.9490 C.3    51  MET51       0.1570
     94  C         36.9910   14.0500   -1.6400 C.2    51  MET51       0.2261
     95  O         37.5720   13.9330   -0.5600 O.2    51  MET51      -0.2867
     96  CB        37.4780   12.2120   -3.2730 C.3    51  MET51       0.0387
     97  CG        36.0240   11.8300   -3.5570 C.3    51  MET51       0.0595
     98  SD        35.2210   12.8630   -4.8180 S.3    51  MET51      -0.1393
     99  CE        36.3400   12.6480   -6.2130 C.3    51  MET51       0.0692
    100  N         37.8190    8.9460   -0.7710 N.3    78  MET78      -0.1245
    101  CA        37.7690   10.0080    0.2230 C.3    78  MET78       0.1570
    102  C         38.3040    9.5050    1.5650 C.2    78  MET78       0.2261
    103  O         39.1170   10.1750    2.2100 O.2    78  MET78      -0.2867
    104  CB        36.3220   10.4910    0.3750 C.3    78  MET78       0.0387
    105  CG        36.1110   11.5980    1.3880 C.3    78  MET78       0.0595
    106  SD        34.3540   11.9570    1.5690 S.3    78  MET78      -0.1393
    107  CE        33.8080   10.4620    2.4550 C.3    78  MET78       0.0692
    108  N         42.0990    8.6050    1.3500 N.3    81  ASN81      -0.1225
    109  CA        42.9610    9.7860    1.3830 C.3    81  ASN81       0.1785
    110  C         43.2160   10.1970    2.8290 C.2    81  ASN81       0.2597
    111  O         44.3210   10.6010    3.1880 O.2    81  ASN81      -0.2718
    112  CB        42.3220   10.9540    0.6260 C.3    81  ASN81       0.1169
    113  CG        42.3490   10.7600   -0.8760 C.2    81  ASN81       0.2627
    114  OD1       43.1520    9.9820   -1.4010 O.2    81  ASN81      -0.2716
    115  ND2       41.4850   11.4830   -1.5800 N.am   81  ASN81      -0.0877
    116  N         42.1840   10.0820    3.6570 N.am   82  CYS82      -0.1970
    117  CA        42.2980   10.4310    5.0670 C.3    82  CYS82       0.1712
    118  C         43.2670    9.4840    5.7840 C.2    82  CYS82       0.2296
    119  O         44.1070    9.9270    6.5680 O.2    82  CYS82      -0.2864
    120  CB        40.9150   10.3770    5.7260 C.3    82  CYS82       0.0983
    121  SG        40.8710   10.8970    7.4640 S.3    82  CYS82      -0.0798
    122  N         47.0320   10.2290    4.4440 N.3    85  TYR85      -0.1227
    123  CA        47.6760   11.4550    4.9030 C.3    85  TYR85       0.1736
    124  C         47.8830   11.5920    6.4100 C.2    85  TYR85       0.2595
    125  O         48.9460   12.0320    6.8610 O.2    85  TYR85      -0.2718
    126  CB        46.8870   12.6780    4.4200 C.3    85  TYR85       0.0548
    127  CG        47.5720   13.9840    4.7530 C.ar   85  TYR85      -0.0200
    128  CD1       48.6830   14.4100    4.0280 C.ar   85  TYR85      -0.0009
    129  CD2       47.1490   14.7640    5.8320 C.ar   85  TYR85      -0.0009
    130  CE1       49.3630   15.5780    4.3690 C.ar   85  TYR85       0.0417
    131  CE2       47.8250   15.9340    6.1850 C.ar   85  TYR85       0.0417
    132  CZ        48.9300   16.3300    5.4490 C.ar   85  TYR85       0.1957
    133  OH        49.6180   17.4640    5.8080 O.3    85  TYR85      -0.2866
    134  N         46.8690   11.2140    7.1800 N.am   86  ASN86      -0.1974
    135  CA        46.8970   11.3550    8.6340 C.3    86  ASN86       0.1688
    136  C         47.4120   10.1770    9.4500 C.2    86  ASN86       0.2292
    137  O         47.2630    9.0220    9.0590 O.2    86  ASN86      -0.2864
    138  CB        45.4880   11.6890    9.1240 C.3    86  ASN86       0.1181
    139  CG        44.9270   12.9270    8.4690 C.2    86  ASN86       0.2629
    140  OD1       45.3020   14.0460    8.8120 O.2    86  ASN86      -0.2716
    141  ND2       44.0310   12.7340    7.5080 N.am   86  ASN86      -0.0877
    142  N         40.7180   12.9210   13.1870 N.3    92  VAL92      -0.1245
    143  CA        40.0340   12.8800   11.8970 C.3    92  VAL92       0.1561
    144  C         39.9230   11.4540   11.3660 C.2    92  VAL92       0.2260
    145  O         38.9630   11.1170   10.6700 O.2    92  VAL92      -0.2867
    146  CB        40.7510   13.7580   10.8480 C.3    92  VAL92       0.0252
    147  CG1       40.8030   15.1950   11.3340 C.3    92  VAL92       0.0019
    148  CG2       42.1490   13.2280   10.5820 C.3    92  VAL92       0.0019
@<TRIPOS>BOND
     1    99    98    1
     2    98    97    1
     3    97    96    1
     4    96    93    1
     5    93    92    1
     6    93    94    1
     7    47    46    1
     8    47    48    1
     9    46    43    1
    10    94    95    2
    11   115   113   am
    12   114   113    2
    13    48    42    1
    14   113   112    1
    15   100   101    1
    16    83    82    2
    17    43    42    1
    18    43    44    1
    19    82    81    1
    20    42    35   am
    21   101   104    1
    22   101   102    1
    23    52    51    2
    24    89    87   ar
    25    89    90   ar
    26   104   105    1
    27    87    85   ar
    28    40    39    1
    29    40    41    1
    30    39    38    1
    31   112   109    1
    32    44    49   am
    33    44    45    2
    34    49    50    1
    35    81    80    1
    36    81    84    1
    37    35    34    1
    38    35    36    2
    39    91    90    1
    40   108   109    1
    41    90    88   ar
    42   109   110    1
    43   105   106    1
    44    51    50    1
    45    51    56   am
    46    85    84    1
    47    85    86   ar
    48    34    37    1
    49    34    33    1
    50   102   103    2
    51    62    61   ar
    52   106   107    1
    53    63    61   ar
    54    61    60    1
    55    37    38    1
    56    57    56    1
    57    57    60    1
    58    57    58    1
    59    50    53    1
    60    53    55    1
    61    53    54    1
    62    88    86   ar
    63    58    59    2
    64    25    24    2
    65    75    74    2
    66   110   111    2
    67   110   116   am
    68   116   117    1
    69    74    73    1
    70    24    23    1
    71   128   130   ar
    72   128   127   ar
    73   130   132   ar
    74   126   127    1
    75   126   123    1
    76   122   123    1
    77    23    26    1
    78    23    22    1
    79    26    27    1
    80   127   129   ar
    81   123   124    1
    82   117   120    1
    83   117   118    1
    84    76    73    1
    85    76    77    1
    86    73    72    1
    87    29    27   ar
    88    29    31   ar
    89   132   133    1
    90   132   131   ar
    91    27    28   ar
    92   120   121    1
    93    18    17    2
    94   118   119    2
    95   129   131   ar
    96    64    65    1
    97    78    77    1
    98    22    17   am
    99    77    79    1
   100    31    32   ar
   101    70    69    1
   102   124   125    2
   103   124   134   am
   104    17    16    1
   105    69    68    1
   106    69    71    1
   107    68    65    1
   108    28    30   ar
   109    65    66    1
   110   134   135    1
   111     4     3    2
   112    66    67    2
   113   141   139   am
   114    32    30   ar
   115    16    15    1
   116    16    19    1
   117     3    15   am
   118     3     2    1
   119   139   140    2
   120   139   138    1
   121    15    21    1
   122   135   138    1
   123   135   136    1
   124    19    20    1
   125     2     1    1
   126     2     5    1
   127   137   136    2
   128    21    20    1
   129     5     6    1
   130    11    13   ar
   131    11     8   ar
   132   148   146    1
   133   145   144    2
   134    13    14   ar
   135   146   147    1
   136   146   143    1
   137     6     8   ar
   138     6     7   ar
   139     8    10   ar
   140   144   143    1
   141   143   142    1
   142    14    12   ar
   143     7     9   ar
   144    10    12   ar
   145    10     9   ar
