@<TRIPOS>MOLECULE
tmp/2dvxA00.pdb
 107 103 0 0 0
SMALL
GASTEIGER

@<TRIPOS>ATOM
      1  N         70.7050   34.4890   27.0450 N.3     8  GLU8       -0.1245
      2  CA        69.2580   34.3920   27.2270 C.3     8  GLU8        0.1567
      3  C         68.7640   34.9200   25.8930 C.2     8  GLU8        0.2260
      4  O         68.2350   36.0230   25.7830 O.2     8  GLU8       -0.2867
      5  CB        68.6960   35.2280   28.3850 C.3     8  GLU8        0.0388
      6  CG        67.2120   34.8560   28.5940 C.3     8  GLU8        0.1160
      7  CD        66.5090   35.5630   29.7390 C.2     8  GLU8        0.3649
      8  OE1       65.2900   35.7930   29.6110 O.co2   8  GLU8       -0.2457
      9  OE2       67.1380   35.8720   30.7700 O.co2   8  GLU8       -0.2457
     10  N         66.5180   33.6280   22.7190 N.3    10  HIS10      -0.1241
     11  CA        65.5130   32.6490   22.3490 C.3    10  HIS10       0.1621
     12  C         65.1780   32.4610   20.8820 C.2    10  HIS10       0.2264
     13  O         65.4690   33.3010   20.0320 O.2    10  HIS10      -0.2867
     14  CB        64.2180   32.9810   23.0910 C.3    10  HIS10       0.0745
     15  CG        64.4070   33.2240   24.5570 C.ar   10  HIS10       0.0817
     16  ND1       64.7380   32.2180   25.4380 N.ar   10  HIS10      -0.2268
     17  CD2       64.3170   34.3570   25.2940 C.ar   10  HIS10       0.1154
     18  CE1       64.8410   32.7200   26.6570 C.ar   10  HIS10       0.1986
     19  NE2       64.5900   34.0150   26.5970 N.ar   10  HIS10      -0.2212
     20  N         54.3750   32.6790   22.3080 N.3    20  SER20      -0.1217
     21  CA        54.8830   34.0490   22.3620 C.3    20  SER20       0.1889
     22  C         53.9410   35.1020   21.7850 C.2    20  SER20       0.2288
     23  O         54.2100   36.2980   21.8820 O.2    20  SER20      -0.2866
     24  CB        56.2280   34.1330   21.6300 C.3    20  SER20       0.2089
     25  OG        57.1800   33.2590   22.2090 O.3    20  SER20      -0.2183
     26  N         52.4970   38.2640   23.9650 N.3    23  PHE23      -0.1241
     27  CA        53.4000   39.1820   24.6490 C.3    23  PHE23       0.1605
     28  C         53.8720   40.3630   23.8090 C.2    23  PHE23       0.2264
     29  O         54.8310   41.0510   24.1670 O.2    23  PHE23      -0.2867
     30  CB        54.5970   38.4190   25.2130 C.3    23  PHE23       0.0534
     31  CG        54.2220   37.3920   26.2470 C.ar   23  PHE23      -0.0203
     32  CD1       53.7980   36.1220   25.8660 C.ar   23  PHE23      -0.0042
     33  CD2       54.2930   37.6960   27.6050 C.ar   23  PHE23      -0.0042
     34  CE1       53.4520   35.1670   26.8240 C.ar   23  PHE23      -0.0003
     35  CE2       53.9490   36.7500   28.5690 C.ar   23  PHE23      -0.0003
     36  CZ        53.5280   35.4820   28.1780 C.ar   23  PHE23      -0.0000
     37  N         59.2620   30.6140   25.8160 N.3    61  ALA61      -0.1245
     38  CA        58.4760   30.2540   26.9950 C.3    61  ALA61       0.1562
     39  C         56.9690   30.4680   26.8670 C.2    61  ALA61       0.2260
     40  O         56.5160   31.3210   26.1040 O.2    61  ALA61      -0.2867
     41  CB        58.9980   31.0380   28.1990 C.3    61  ALA61       0.0290
     42  N         64.4150   30.2770   34.0560 N.3   164  HIS164     -0.1241
     43  CA        63.7700   31.3570   33.3070 C.3   164  HIS164      0.1621
     44  C         62.3300   31.5840   33.7760 C.2   164  HIS164      0.2264
     45  O         61.7190   30.7000   34.3710 O.2   164  HIS164     -0.2867
     46  CB        63.8240   30.9880   31.8130 C.3   164  HIS164      0.0745
     47  CG        63.3850   32.0770   30.8840 C.ar  164  HIS164      0.0817
     48  ND1       62.0620   32.3040   30.5740 N.ar  164  HIS164     -0.2268
     49  CD2       64.0960   32.9990   30.1900 C.ar  164  HIS164      0.1154
     50  CE1       61.9750   33.3170   29.7310 C.ar  164  HIS164      0.1986
     51  NE2       63.1960   33.7580   29.4820 N.ar  164  HIS164     -0.2212
     52  N         56.8660   40.2150   31.6150 N.3   185  PRO185     -0.2116
     53  CA        58.0900   40.9430   31.9660 C.3   185  PRO185      0.1372
     54  C         57.9420   42.2080   32.8090 C.2   185  PRO185      0.2244
     55  O         58.9150   42.6650   33.4190 O.2   185  PRO185     -0.2868
     56  CB        58.7270   41.2150   30.6040 C.3   185  PRO185      0.0268
     57  CG        57.5400   41.3740   29.7170 C.3   185  PRO185      0.0207
     58  CD        56.6570   40.2290   30.1540 C.3   185  PRO185      0.0892
     59  N         56.6720   37.9380   35.9390 N.3   189  PHE189     -0.1241
     60  CA        57.8050   37.0700   35.6170 C.3   189  PHE189      0.1605
     61  C         58.8460   37.0660   36.7400 C.2   189  PHE189      0.2264
     62  O         59.3540   36.0090   37.1300 O.2   189  PHE189     -0.2867
     63  CB        58.5040   37.5410   34.3380 C.3   189  PHE189      0.0534
     64  CG        57.9220   36.9840   33.0660 C.ar  189  PHE189     -0.0203
     65  CD1       58.5280   37.2670   31.8470 C.ar  189  PHE189     -0.0042
     66  CD2       56.7920   36.1720   33.0790 C.ar  189  PHE189     -0.0042
     67  CE1       58.0200   36.7500   30.6510 C.ar  189  PHE189     -0.0003
     68  CE2       56.2750   35.6490   31.8930 C.ar  189  PHE189     -0.0003
     69  CZ        56.8940   35.9410   30.6740 C.ar  189  PHE189     -0.0000
     70  N         67.3620   38.9050   33.9540 N.3   218  HIS218     -0.1241
     71  CA        66.7540   40.1440   34.4200 C.3   218  HIS218      0.1621
     72  C         67.3440   40.6480   35.7240 C.2   218  HIS218      0.2264
     73  O         66.6300   41.1390   36.6040 O.2   218  HIS218     -0.2867
     74  CB        65.2480   39.9070   34.5280 C.3   218  HIS218      0.0745
     75  CG        64.7250   39.0600   33.4090 C.ar  218  HIS218      0.0817
     76  ND1       64.4210   37.7240   33.5660 N.ar  218  HIS218     -0.2268
     77  CD2       64.6050   39.3180   32.0850 C.ar  218  HIS218      0.1154
     78  CE1       64.1450   37.1940   32.3870 C.ar  218  HIS218      0.1986
     79  NE2       64.2510   38.1400   31.4720 N.ar  218  HIS218     -0.2212
     80  N         68.0270   38.8990   25.8560 N.3   287  ASP287     -0.1239
     81  CA        66.6340   38.4540   25.8680 C.3   287  ASP287      0.1674
     82  C         66.0490   38.6420   24.4680 C.2   287  ASP287      0.2266
     83  O         64.8410   38.8100   24.2910 O.2   287  ASP287     -0.2867
     84  CB        65.7840   39.2070   26.9010 C.3   287  ASP287      0.1410
     85  CG        64.7440   38.3090   27.5610 C.2   287  ASP287      0.3668
     86  OD1       64.5360   37.1780   27.0650 O.co2 287  ASP287     -0.2456
     87  OD2       64.1340   38.7260   28.5750 O.co2 287  ASP287     -0.2456
     88  N         62.8670   39.3430   22.2440 N.3   290  PHE290     -0.1227
     89  CA        61.9280   40.1500   23.0140 C.3   290  PHE290      0.1736
     90  C         62.5210   41.5230   23.3330 C.2   290  PHE290      0.2595
     91  O         61.7960   42.4720   23.6500 O.2   290  PHE290     -0.2718
     92  CB        61.5430   39.3880   24.2800 C.3   290  PHE290      0.0547
     93  CG        60.9340   38.0470   23.9940 C.ar  290  PHE290     -0.0202
     94  CD1       59.6280   37.9510   23.5190 C.ar  290  PHE290     -0.0042
     95  CD2       61.6800   36.8830   24.1440 C.ar  290  PHE290     -0.0042
     96  CE1       59.0730   36.7140   23.1950 C.ar  290  PHE290     -0.0003
     97  CE2       61.1340   35.6360   23.8230 C.ar  290  PHE290     -0.0003
     98  CZ        59.8270   35.5530   23.3470 C.ar  290  PHE290     -0.0000
     99  N         63.8450   41.6130   23.2380 N.am  291  GLU291     -0.1979
    100  CA        64.5820   42.8570   23.4430 C.3   291  GLU291      0.1602
    101  C         65.4920   42.9920   22.2320 C.2   291  GLU291      0.2287
    102  O         65.9580   41.9860   21.7010 O.2   291  GLU291     -0.2864
    103  CB        65.4670   42.7910   24.6870 C.3   291  GLU291      0.0415
    104  CG        64.7300   42.6190   25.9960 C.3   291  GLU291      0.1163
    105  CD        63.8570   43.8070   26.3630 C.2   291  GLU291      0.3649
    106  OE1       63.9880   44.8890   25.7470 O.co2 291  GLU291     -0.2457
    107  OE2       63.0380   43.6560   27.2930 O.co2 291  GLU291     -0.2457
@<TRIPOS>BOND
     1    13    12    2
     2    12    11    1
     3    24    25    1
     4    24    21    1
     5   102   101    2
     6    22    23    2
     7    22    21    1
     8   101   100    1
     9    88    89    1
    10    20    21    1
    11    11    10    1
    12    11    14    1
    13    89    90    1
    14    89    92    1
    15    14    15    1
    16    96    98   ar
    17    96    94   ar
    18    99    90   am
    19    99   100    1
    20    90    91    2
    21    98    97   ar
    22   100   103    1
    23    94    93   ar
    24    28    29    2
    25    28    27    1
    26    97    95   ar
    27    26    27    1
    28    93    95   ar
    29    93    92    1
    30    83    82    2
    31    82    81    1
    32    15    17   ar
    33    15    16   ar
    34    27    30    1
    35   103   104    1
    36    30    31    1
    37    17    19   ar
    38    16    18   ar
    39   106   105   ar
    40     4     3    2
    41    37    38    1
    42    80    81    1
    43    32    31   ar
    44    32    34   ar
    45    81    84    1
    46     3     2    1
    47   104   105    1
    48    40    39    2
    49    31    33   ar
    50   105   107   ar
    51    19    18   ar
    52    34    36   ar
    53    39    38    1
    54    84    85    1
    55    38    41    1
    56     1     2    1
    57    86    85   ar
    58     2     5    1
    59    85    87   ar
    60    33    35   ar
    61    36    35   ar
    62     5     6    1
    63     6     7    1
    64    51    50   ar
    65    51    49   ar
    66     8     7   ar
    67    57    58    1
    68    57    56    1
    69    50    48   ar
    70     7     9   ar
    71    58    52    1
    72    49    47   ar
    73    48    47   ar
    74    56    53    1
    75    67    69   ar
    76    67    65   ar
    77    69    68   ar
    78    47    46    1
    79    79    77   ar
    80    79    78   ar
    81    52    53    1
    82    46    43    1
    83    65    64   ar
    84    68    66   ar
    85    53    54    1
    86    77    75   ar
    87    78    76   ar
    88    54    55    2
    89    64    66   ar
    90    64    63    1
    91    43    44    1
    92    43    42    1
    93    75    76   ar
    94    75    74    1
    95    44    45    2
    96    70    71    1
    97    63    60    1
    98    71    74    1
    99    71    72    1
   100    60    59    1
   101    60    61    1
   102    72    73    2
   103    61    62    2
