@<TRIPOS>MOLECULE
tmp/2dvzA00.pdb
 123 116 0 0 0
SMALL
GASTEIGER

@<TRIPOS>ATOM
      1  N         44.8180   25.6980    5.4120 N.3    13  PHE13      -0.1227
      2  CA        44.3140   27.0580    5.5590 C.3    13  PHE13       0.1736
      3  C         45.2990   28.0440    4.9640 C.2    13  PHE13       0.2595
      4  O         46.4690   27.7420    4.8010 O.2    13  PHE13      -0.2718
      5  CB        44.0520   27.3840    7.0340 C.3    13  PHE13       0.0547
      6  CG        42.8370   26.7360    7.5630 C.ar   13  PHE13      -0.0202
      7  CD1       41.5640   27.2520    7.2480 C.ar   13  PHE13      -0.0042
      8  CD2       42.9290   25.5780    8.3340 C.ar   13  PHE13      -0.0042
      9  CE1       40.4140   26.6420    7.6960 C.ar   13  PHE13      -0.0003
     10  CE2       41.7610   24.9550    8.8050 C.ar   13  PHE13      -0.0003
     11  CZ        40.4990   25.4930    8.4820 C.ar   13  PHE13      -0.0000
     12  N         44.8100   29.2400    4.6730 N.am   14  ALA14      -0.1980
     13  CA        45.6180   30.3430    4.1420 C.3    14  ALA14       0.1597
     14  C         46.7620   30.7170    5.0980 C.2    14  ALA14       0.2287
     15  O         46.6990   30.4160    6.2950 O.2    14  ALA14      -0.2864
     16  CB        44.7040   31.5650    3.9030 C.3    14  ALA14       0.0319
     17  N         47.0950   32.2590    9.4990 N.3    17  GLY17      -0.1210
     18  CA        46.1360   31.8180   10.5180 C.3    17  GLY17       0.1956
     19  C         46.9180   31.0590   11.5760 C.2    17  GLY17       0.2613
     20  O         48.1440   30.9580   11.4800 O.2    17  GLY17      -0.2717
     21  N         46.2310   30.5180   12.5790 N.am   18  SER18      -0.1938
     22  CA        46.9050   29.7940   13.6370 C.3    18  SER18       0.2055
     23  C         47.5210   28.4670   13.1420 C.2    18  SER18       0.2644
     24  O         48.5990   28.0840   13.6050 O.2    18  SER18      -0.2714
     25  CB        45.9330   29.5310   14.8150 C.3    18  SER18       0.2130
     26  OG        45.3720   30.7510   15.2930 O.3    18  SER18      -0.2179
     27  N         46.8250   27.7460   12.2540 N.am   19  THR19      -0.1936
     28  CA        47.3650   26.5340   11.6630 C.3    19  THR19       0.2028
     29  C         48.7140   26.7950   11.0230 C.2    19  THR19       0.2642
     30  O         49.6860   26.1510   11.3670 O.2    19  THR19      -0.2714
     31  CB        46.4150   25.9370   10.5790 C.3    19  THR19       0.1808
     32  OG1       45.0510   26.0940   11.0000 O.3    19  THR19      -0.2208
     33  CG2       46.7410   24.4830   10.3360 C.3    19  THR19       0.0379
     34  N         48.7620   27.7570   10.1120 N.am   20  ASP20      -0.1971
     35  CA        50.0170   28.2380    9.5260 C.3    20  ASP20       0.1709
     36  C         51.0720   28.6910   10.5690 C.2    20  ASP20       0.2293
     37  O         52.2500   28.3240   10.4770 O.2    20  ASP20      -0.2864
     38  CB        49.7090   29.3900    8.5820 C.3    20  ASP20       0.1436
     39  CG        50.8920   29.7560    7.6800 C.2    20  ASP20       0.3671
     40  OD1       51.4050   28.8550    6.9560 O.co2  20  ASP20      -0.2456
     41  OD2       51.2640   30.9580    7.6610 O.co2  20  ASP20      -0.2456
     42  N         43.3130   19.8310   12.3050 N.3    67  THR67      -0.1203
     43  CA        42.6650   20.9800   12.9110 C.3    67  THR67       0.1994
     44  C         41.2900   20.4900   13.2570 C.2    67  THR67       0.2618
     45  O         40.8420   19.4760   12.7060 O.2    67  THR67      -0.2717
     46  CB        42.5090   22.1480   11.9230 C.3    67  THR67       0.1784
     47  OG1       41.6210   21.7520   10.8790 O.3    67  THR67      -0.2211
     48  CG2       43.8550   22.5900   11.3310 C.3    67  THR67       0.0376
     49  N         40.6030   21.1920   14.1610 N.am   68  VAL68      -0.1965
     50  CA        39.2480   20.8030   14.5140 C.3    68  VAL68       0.1727
     51  C         38.2830   21.0000   13.3280 C.2    68  VAL68       0.2616
     52  O         37.2880   20.2890   13.2150 O.2    68  VAL68      -0.2715
     53  CB        38.7460   21.4640   15.8620 C.3    68  VAL68       0.0290
     54  CG1       37.3220   21.0310   16.1600 C.3    68  VAL68       0.0023
     55  CG2       39.6340   21.0540   17.0370 C.3    68  VAL68       0.0023
     56  N         38.5660   21.9640   12.4570 N.am   69  SER69      -0.1950
     57  CA        37.7670   22.1630   11.2590 C.3    69  SER69       0.1924
     58  C         37.8160   20.8930   10.4040 C.2    69  SER69       0.2314
     59  O         36.7890   20.3660    9.9910 O.2    69  SER69      -0.2863
     60  CB        38.2670   23.3690   10.4490 C.3    69  SER69       0.2116
     61  OG        37.9650   24.5870   11.1250 O.3    69  SER69      -0.2180
     62  N         37.0350   31.4520    9.5680 N.3   132  SER132     -0.1217
     63  CA        38.0480   30.8490    8.6940 C.3   132  SER132      0.1889
     64  C         37.4280   29.9460    7.6340 C.2   132  SER132      0.2288
     65  O         38.1610   29.2840    6.9270 O.2   132  SER132     -0.2866
     66  CB        39.0040   29.9960    9.5280 C.3   132  SER132      0.2089
     67  OG        38.2830   28.9040   10.1250 O.3   132  SER132     -0.2183
     68  N         35.5890   25.2260   12.3000 N.3   137  VAL137     -0.1231
     69  CA        35.2960   25.4140   13.7130 C.3   137  VAL137      0.1692
     70  C         34.9190   26.8370   14.1390 C.2   137  VAL137      0.2591
     71  O         34.2080   27.0140   15.1160 O.2   137  VAL137     -0.2718
     72  CB        36.4290   24.8180   14.6370 C.3   137  VAL137      0.0266
     73  CG1       37.6620   25.6100   14.5500 C.3   137  VAL137      0.0020
     74  CG2       35.9430   24.7410   16.0730 C.3   137  VAL137      0.0020
     75  N         35.3860   27.8530   13.4280 N.am  138  LEU138     -0.1980
     76  CA        35.1150   29.2160   13.8440 C.3   138  LEU138      0.1596
     77  C         33.7270   29.6770   13.3890 C.2   138  LEU138      0.2287
     78  O         33.1190   30.4750   14.0720 O.2   138  LEU138     -0.2864
     79  CB        36.2590   30.1600   13.4080 C.3   138  LEU138      0.0297
     80  CG        37.6300   29.6980   13.9610 C.3   138  LEU138      0.0022
     81  CD1       38.7410   30.4220   13.2930 C.3   138  LEU138      0.0001
     82  CD2       37.6970   29.8570   15.4940 C.3   138  LEU138      0.0001
     83  N         40.5910   31.6300    5.5370 N.3   158  GLY158     -0.1210
     84  CA        41.1870   31.2580    6.7960 C.3   158  GLY158      0.1956
     85  C         41.1370   32.5290    7.6390 C.2   158  GLY158      0.2613
     86  O         40.7230   33.5570    7.1510 O.2   158  GLY158     -0.2717
     87  N         41.5700   32.4400    8.9010 N.am  159  SER159     -0.1938
     88  CA        41.5900   33.5730    9.8170 C.3   159  SER159      0.2055
     89  C         42.5710   34.6830    9.4060 C.2   159  SER159      0.2643
     90  O         42.3540   35.8580    9.7550 O.2   159  SER159     -0.2714
     91  CB        41.8900   33.0840   11.2110 C.3   159  SER159      0.2130
     92  OG        40.8360   32.2350   11.6350 O.3   159  SER159     -0.2179
     93  N         43.6340   34.3350    8.6750 N.am  160  GLY160     -0.1954
     94  CA        44.5330   35.3400    8.0850 C.3   160  GLY160      0.1869
     95  C         43.7680   36.5290    7.5020 C.2   160  GLY160      0.2309
     96  O         43.8770   37.6600    8.0170 O.2   160  GLY160     -0.2863
     97  N         40.9270   31.4540   16.4590 N.3   177  ASN177     -0.1240
     98  CA        41.8360   30.7180   17.2930 C.3   177  ASN177      0.1653
     99  C         42.8130   31.7820   17.6990 C.2   177  ASN177      0.2266
    100  O         43.2090   32.6170   16.8930 O.2   177  ASN177     -0.2867
    101  CB        42.5490   29.5810   16.5140 C.3   177  ASN177      0.1155
    102  CG        41.6250   28.8730   15.4600 C.2   177  ASN177      0.2627
    103  OD1       41.8570   28.9980   14.2550 O.2   177  ASN177     -0.2716
    104  ND2       40.6090   28.1570   15.9130 N.am  177  ASN177     -0.0877
    105  N         40.6090   24.4010   20.9750 N.3   220  VAL220     -0.1245
    106  CA        40.9440   23.5440   19.8390 C.3   220  VAL220      0.1561
    107  C         42.3810   22.9850   20.0220 C.2   220  VAL220      0.2260
    108  O         42.9370   23.0030   21.1480 O.2   220  VAL220     -0.2867
    109  CB        40.7390   24.3020   18.4850 C.3   220  VAL220      0.0252
    110  CG1       39.3020   24.7230   18.3390 C.3   220  VAL220      0.0019
    111  CG2       41.7080   25.4990   18.3090 C.3   220  VAL220      0.0019
    112  N         46.1200   21.6470   17.3840 N.3   222  TYR222     -0.1241
    113  CA        46.8190   21.4640   16.1200 C.3   222  TYR222      0.1605
    114  C         47.7600   20.2700   16.2200 C.2   222  TYR222      0.2264
    115  O         48.4930   20.1490   17.1790 O.2   222  TYR222     -0.2867
    116  CB        47.5950   22.7520   15.7410 C.3   222  TYR222      0.0534
    117  CG        46.6080   23.8720   15.5670 C.ar  222  TYR222     -0.0201
    118  CD1       45.9850   24.0830   14.3200 C.ar  222  TYR222     -0.0009
    119  CD2       46.2210   24.6700   16.6660 C.ar  222  TYR222     -0.0009
    120  CE1       45.0180   25.0780   14.1630 C.ar  222  TYR222      0.0417
    121  CE2       45.2760   25.6910   16.5120 C.ar  222  TYR222      0.0417
    122  CZ        44.6640   25.8790   15.2710 C.ar  222  TYR222      0.1957
    123  OH        43.7120   26.8650   15.1240 O.3   222  TYR222     -0.2866
@<TRIPOS>BOND
     1    16    13    1
     2    13    12    1
     3    13    14    1
     4    12     3   am
     5     4     3    2
     6     3     2    1
     7    14    15    2
     8     1     2    1
     9    83    84    1
    10     2     5    1
    11    84    85    1
    12    65    64    2
    13    40    39   ar
    14     5     6    1
    15    86    85    2
    16     7     6   ar
    17     7     9   ar
    18    95    96    2
    19    95    94    1
    20     6     8   ar
    21    64    63    1
    22    85    87   am
    23    41    39   ar
    24    39    38    1
    25     9    11   ar
    26    94    93    1
    27     8    10   ar
    28    11    10   ar
    29    38    35    1
    30    93    89   am
    31    63    66    1
    32    63    62    1
    33    87    88    1
    34    89    90    2
    35    89    88    1
    36    17    18    1
    37    35    34    1
    38    35    36    1
    39    66    67    1
    40    88    91    1
    41    59    58    2
    42    34    29   am
    43    33    31    1
    44    58    57    1
    45    60    61    1
    46    60    57    1
    47    37    36    2
    48    18    19    1
    49    31    32    1
    50    31    28    1
    51    47    46    1
    52    29    30    2
    53    29    28    1
    54    91    92    1
    55    57    56    1
    56    48    46    1
    57    20    19    2
    58    19    21   am
    59    28    27    1
    60    46    43    1
    61    27    23   am
    62    68    69    1
    63    42    43    1
    64    56    51   am
    65    21    22    1
    66    45    44    2
    67    43    44    1
    68    23    24    2
    69    23    22    1
    70    52    51    2
    71    44    49   am
    72    81    80    1
    73    51    50    1
    74    77    76    1
    75    77    78    2
    76    79    76    1
    77    79    80    1
    78    75    76    1
    79    75    70   am
    80    22    25    1
    81    69    70    1
    82    69    72    1
    83    80    82    1
    84    70    71    2
    85    49    50    1
    86   120   118   ar
    87   120   122   ar
    88   103   102    2
    89   118   117   ar
    90    50    53    1
    91    73    72    1
    92    72    74    1
    93    25    26    1
    94   123   122    1
    95   122   121   ar
    96   102   104   am
    97   102   101    1
    98   117   116    1
    99   117   119   ar
   100   116   113    1
   101    53    54    1
   102    53    55    1
   103   113   114    1
   104   113   112    1
   105   114   115    2
   106    97    98    1
   107   121   119   ar
   108   101    98    1
   109   100    99    2
   110    98    99    1
   111   111   109    1
   112   110   109    1
   113   109   106    1
   114   106   107    1
   115   106   105    1
   116   107   108    2
