@<TRIPOS>MOLECULE
tmp/2dw1B01.pdb
 152 149 0 0 0
SMALL
GASTEIGER

@<TRIPOS>ATOM
      1  N         53.8570   58.4640   58.4340 N.3   103  ARG103     -0.1231
      2  CA        54.1540   59.3760   57.3340 C.3   103  ARG103      0.1694
      3  C         53.3910   60.7040   57.3020 C.2   103  ARG103      0.2592
      4  O         53.9980   61.7740   57.2010 O.2   103  ARG103     -0.2718
      5  CB        53.9360   58.6410   56.0050 C.3   103  ARG103      0.0321
      6  CG        54.8220   57.4150   55.8050 C.3   103  ARG103      0.0489
      7  CD        54.2660   56.4840   54.7340 C.3   103  ARG103      0.2205
      8  NE        53.4510   55.4010   55.2910 N.pl3 103  ARG103     -0.0865
      9  CZ        52.1360   55.2680   55.1190 C.cat 103  ARG103      0.5346
     10  NH1       51.4540   56.1540   54.4010 N.pl3 103  ARG103      0.1354
     11  NH2       51.5010   54.2340   55.6600 N.pl3 103  ARG103      0.1354
     12  N         52.0660   60.6390   57.3830 N.am  104  VAL104     -0.1966
     13  CA        51.2470   61.8480   57.3110 C.3   104  VAL104      0.1727
     14  C         50.7450   62.3830   58.6560 C.2   104  VAL104      0.2616
     15  O         50.8890   61.7420   59.6900 O.2   104  VAL104     -0.2715
     16  CB        50.0350   61.6090   56.3780 C.3   104  VAL104      0.0290
     17  CG1       50.5220   61.1420   55.0120 C.3   104  VAL104      0.0023
     18  CG2       49.1150   60.5630   56.9710 C.3   104  VAL104      0.0023
     19  N         50.1680   63.5770   58.6310 N.am  105  ILE105     -0.1963
     20  CA        49.6310   64.1800   59.8400 C.3   105  ILE105      0.1727
     21  C         48.1250   64.3680   59.6830 C.2   105  ILE105      0.2617
     22  O         47.4520   64.9320   60.5520 O.2   105  ILE105     -0.2715
     23  CB        50.3100   65.5250   60.1310 C.3   105  ILE105      0.0290
     24  CG1       50.1390   66.4690   58.9460 C.3   105  ILE105      0.0022
     25  CG2       51.7820   65.2950   60.4220 C.3   105  ILE105      0.0023
     26  CD1       51.0360   67.6940   59.0040 C.3   105  ILE105      0.0001
     27  N         47.6080   63.8720   58.5650 N.am  106  GLY106     -0.1940
     28  CA        46.1880   63.9520   58.2800 C.3   106  GLY106      0.2014
     29  C         45.8380   63.2120   56.9980 C.2   106  GLY106      0.2639
     30  O         46.6650   63.0980   56.0950 O.2   106  GLY106     -0.2714
     31  N         44.6170   62.6980   56.9160 N.am  107  LEU107     -0.1963
     32  CA        44.1730   61.9960   55.7190 C.3   107  LEU107      0.1728
     33  C         42.6890   62.2830   55.5390 C.2   107  LEU107      0.2616
     34  O         41.9730   62.5130   56.5180 O.2   107  LEU107     -0.2715
     35  CB        44.4030   60.4870   55.8570 C.3   107  LEU107      0.0311
     36  CG        44.4940   59.7020   54.5450 C.3   107  LEU107      0.0022
     37  CD1       45.7680   60.0980   53.8200 C.3   107  LEU107      0.0001
     38  CD2       44.4960   58.2010   54.8140 C.3   107  LEU107      0.0001
     39  N         42.2250   62.2770   54.2930 N.am  108  ALA108     -0.1977
     40  CA        40.8200   62.5530   54.0150 C.3   108  ALA108      0.1597
     41  C         40.4110   62.1500   52.6110 C.2   108  ALA108      0.2287
     42  O         41.2160   62.1830   51.6870 O.2   108  ALA108     -0.2864
     43  CB        40.5350   64.0330   54.2170 C.3   108  ALA108      0.0319
     44  N         49.6200   67.3130   65.4990 N.3   126  TYR126     -0.1241
     45  CA        50.9920   67.5260   65.0740 C.3   126  TYR126      0.1605
     46  C         51.7710   68.5820   65.8320 C.2   126  TYR126      0.2264
     47  O         52.9460   68.3870   66.1320 O.2   126  TYR126     -0.2867
     48  CB        51.0210   67.8780   63.5850 C.3   126  TYR126      0.0534
     49  CG        52.4130   67.9420   62.9950 C.ar  126  TYR126     -0.0201
     50  CD1       53.2270   66.8110   62.9670 C.ar  126  TYR126     -0.0009
     51  CD2       52.9110   69.1260   62.4470 C.ar  126  TYR126     -0.0009
     52  CE1       54.5040   66.8510   62.4040 C.ar  126  TYR126      0.0417
     53  CE2       54.1870   69.1760   61.8800 C.ar  126  TYR126      0.0417
     54  CZ        54.9760   68.0330   61.8600 C.ar  126  TYR126      0.1957
     55  OH        56.2270   68.0570   61.2810 O.3   126  TYR126     -0.2866
     56  N         45.4610   74.5030   59.6980 N.3   135  VAL135     -0.1231
     57  CA        45.8110   74.1870   58.3230 C.3   135  VAL135      0.1692
     58  C         45.5490   72.7150   58.0000 C.2   135  VAL135      0.2591
     59  O         44.9950   72.4050   56.9440 O.2   135  VAL135     -0.2718
     60  CB        47.2930   74.5440   58.0160 C.3   135  VAL135      0.0266
     61  CG1       47.6890   74.0320   56.6340 C.3   135  VAL135      0.0020
     62  CG2       47.4770   76.0560   58.0610 C.3   135  VAL135      0.0020
     63  N         45.9360   71.8120   58.9000 N.am  136  ILE136     -0.1980
     64  CA        45.7060   70.3850   58.6720 C.3   136  ILE136      0.1595
     65  C         44.2120   70.1570   58.4530 C.2   136  ILE136      0.2287
     66  O         43.8050   69.5200   57.4780 O.2   136  ILE136     -0.2864
     67  CB        46.0990   69.5060   59.8820 C.3   136  ILE136      0.0276
     68  CG1       47.4540   69.9190   60.4510 C.3   136  ILE136      0.0022
     69  CG2       46.1270   68.0490   59.4540 C.3   136  ILE136      0.0022
     70  CD1       48.5990   69.7150   59.5180 C.3   136  ILE136      0.0001
     71  N         42.9900   71.7140   55.4180 N.3   139  HIS139     -0.1226
     72  CA        43.5220   70.8830   54.3390 C.3   139  HIS139      0.1752
     73  C         42.6370   69.6440   54.1300 C.2   139  HIS139      0.2595
     74  O         42.2610   69.3340   53.0020 O.2   139  HIS139     -0.2718
     75  CB        44.9650   70.4410   54.6600 C.3   139  HIS139      0.0759
     76  CG        45.6120   69.6160   53.5820 C.ar  139  HIS139      0.0818
     77  ND1       46.4840   70.1480   52.6550 N.ar  139  HIS139     -0.2268
     78  CD2       45.4870   68.3040   53.2650 C.ar  139  HIS139      0.1154
     79  CE1       46.8640   69.2020   51.8140 C.ar  139  HIS139      0.1986
     80  NE2       46.2740   68.0740   52.1610 N.ar  139  HIS139     -0.2212
     81  N         42.2990   68.9440   55.2120 N.am  140  GLU140     -0.1979
     82  CA        41.4770   67.7380   55.0940 C.3   140  GLU140      0.1602
     83  C         40.0610   68.0470   54.6260 C.2   140  GLU140      0.2287
     84  O         39.5320   67.3570   53.7550 O.2   140  GLU140     -0.2864
     85  CB        41.4200   66.9740   56.4210 C.3   140  GLU140      0.0415
     86  CG        42.7750   66.5880   57.0020 C.3   140  GLU140      0.1163
     87  CD        43.7140   65.9520   55.9830 C.2   140  GLU140      0.3649
     88  OE1       43.2820   65.0370   55.2460 O.co2 140  GLU140     -0.2457
     89  OE2       44.8940   66.3640   55.9310 O.co2 140  GLU140     -0.2457
     90  N         40.0120   68.5650   50.9210 N.3   143  HIS143     -0.1241
     91  CA        39.9200   67.3230   50.1530 C.3   143  HIS143      0.1621
     92  C         38.4540   66.8840   50.0950 C.2   143  HIS143      0.2264
     93  O         37.9620   66.4650   49.0450 O.2   143  HIS143     -0.2867
     94  CB        40.7540   66.2100   50.8040 C.3   143  HIS143      0.0745
     95  CG        42.2300   66.3220   50.5600 C.ar  143  HIS143      0.0817
     96  ND1       42.7780   66.3450   49.2960 N.ar  143  HIS143     -0.2268
     97  CD2       43.2750   66.3660   51.4220 C.ar  143  HIS143      0.1154
     98  CE1       44.0950   66.3950   49.3890 C.ar  143  HIS143      0.1986
     99  NE2       44.4230   66.4090   50.6680 N.ar  143  HIS143     -0.2212
    100  N         45.7550   68.3740   45.9250 N.3   149  HIS149     -0.1241
    101  CA        46.9940   69.0720   46.2550 C.3   149  HIS149      0.1621
    102  C         47.4250   70.0600   45.1850 C.2   149  HIS149      0.2264
    103  O         47.1190   69.8880   44.0070 O.2   149  HIS149     -0.2867
    104  CB        48.1150   68.0590   46.4900 C.3   149  HIS149      0.0745
    105  CG        47.9010   67.1950   47.6950 C.ar  149  HIS149      0.0817
    106  ND1       48.1510   65.8390   47.6940 N.ar  149  HIS149     -0.2268
    107  CD2       47.4610   67.4960   48.9400 C.ar  149  HIS149      0.1154
    108  CE1       47.8700   65.3410   48.8840 C.ar  149  HIS149      0.1986
    109  NE2       47.4500   66.3250   49.6590 N.ar  149  HIS149     -0.2212
    110  N         47.7390   76.1220   51.5740 N.3   162  ILE162     -0.1245
    111  CA        47.1160   75.0950   52.3880 C.3   162  ILE162      0.1561
    112  C         46.9810   73.7350   51.7200 C.2   162  ILE162      0.2260
    113  O         47.0010   72.7050   52.4010 O.2   162  ILE162     -0.2867
    114  CB        45.7240   75.5590   52.8440 C.3   162  ILE162      0.0252
    115  CG1       45.8740   76.7580   53.7840 C.3   162  ILE162      0.0019
    116  CG2       44.9810   74.4090   53.5060 C.3   162  ILE162      0.0019
    117  CD1       44.5760   77.4620   54.1010 C.3   162  ILE162      0.0001
    118  N         49.1290   72.3010   49.6650 N.3   164  ARG164     -0.1231
    119  CA        50.3910   71.7190   49.2330 C.3   164  ARG164      0.1679
    120  C         50.4040   70.3270   49.8390 C.2   164  ARG164      0.2434
    121  O         49.8420   70.1190   50.9090 O.2   164  ARG164     -0.2733
    122  CB        51.5840   72.5300   49.7420 C.3   164  ARG164      0.0321
    123  CG        51.7830   73.8540   49.0150 C.3   164  ARG164      0.0489
    124  CD        53.2450   74.2770   49.0470 C.3   164  ARG164      0.2205
    125  NE        54.1140   73.2570   48.4570 N.pl3 164  ARG164     -0.0865
    126  CZ        54.0760   72.8820   47.1810 C.cat 164  ARG164      0.5346
    127  NH1       53.2120   73.4420   46.3420 N.pl3 164  ARG164      0.1354
    128  NH2       54.9020   71.9380   46.7440 N.pl3 164  ARG164      0.1354
    129  N         51.0340   69.3550   49.1610 N.am  165  PRO165     -0.2718
    130  CA        51.1080   67.9680   49.6380 C.3   165  PRO165      0.1535
    131  C         51.8890   67.7590   50.9390 C.2   165  PRO165      0.2598
    132  O         52.0110   66.6340   51.4260 O.2   165  PRO165     -0.2715
    133  CB        51.7310   67.2350   48.4550 C.3   165  PRO165      0.0310
    134  CG        52.6370   68.2840   47.8670 C.3   165  PRO165      0.0237
    135  CD        51.7740   69.5200   47.8970 C.3   165  PRO165      0.0939
    136  N         52.4180   68.8430   51.4960 N.am  166  GLU166     -0.1964
    137  CA        53.1670   68.7680   52.7410 C.3   166  GLU166      0.1733
    138  C         52.9800   70.0960   53.4540 C.2   166  GLU166      0.2616
    139  O         52.8440   71.1320   52.8010 O.2   166  GLU166     -0.2715
    140  CB        54.6630   68.5400   52.4740 C.3   166  GLU166      0.0429
    141  CG        55.4600   69.8040   52.1220 C.3   166  GLU166      0.1163
    142  CD        55.2810   70.2540   50.6800 C.2   166  GLU166      0.3649
    143  OE1       55.3040   71.4780   50.4310 O.co2 166  GLU166     -0.2457
    144  OE2       55.1330   69.3880   49.7910 O.co2 166  GLU166     -0.2457
    145  N         52.9650   70.0740   54.7840 N.am  167  ILE167     -0.1977
    146  CA        52.8070   71.3140   55.5250 C.3   167  ILE167      0.1596
    147  C         54.1700   71.9980   55.5670 C.2   167  ILE167      0.2287
    148  O         55.1700   71.4080   55.1640 O.2   167  ILE167     -0.2864
    149  CB        52.2940   71.0610   56.9650 C.3   167  ILE167      0.0276
    150  CG1       51.7890   72.3770   57.5630 C.3   167  ILE167      0.0022
    151  CG2       53.4110   70.4650   57.8370 C.3   167  ILE167      0.0022
    152  CD1       51.0820   72.2040   58.8760 C.3   167  ILE167      0.0001
@<TRIPOS>BOND
     1   103   102    2
     2   102   101    1
     3   100   101    1
     4   101   104    1
     5   127   126    1
     6   104   105    1
     7   128   126    1
     8   126   125    2
     9   106   105   ar
    10   106   108   ar
    11   105   107   ar
    12   134   135    1
    13   134   133    1
    14   135   129    1
    15   133   130    1
    16   125   124    1
    17   108   109   ar
    18   107   109   ar
    19   123   124    1
    20   123   122    1
    21    93    92    2
    22   129   130    1
    23   129   120   am
    24   119   118    1
    25   119   122    1
    26   119   120    1
    27    96    98   ar
    28    96    95   ar
    29    98    99   ar
    30   130   131    1
    31   144   142   ar
    32   120   121    2
    33    92    91    1
    34    91    94    1
    35    91    90    1
    36   143   142   ar
    37    95    94    1
    38    95    97   ar
    39    99    97   ar
    40   142   141    1
    41   131   132    2
    42   131   136   am
    43   136   137    1
    44   110   111    1
    45    42    41    2
    46   112   111    1
    47   112   113    2
    48    79    80   ar
    49    79    77   ar
    50   141   140    1
    51    80    78   ar
    52   111   114    1
    53   140   137    1
    54    41    40    1
    55    77    76   ar
    56   137   138    1
    57   139   138    2
    58   114   116    1
    59   114   115    1
    60    74    73    2
    61    78    76   ar
    62   138   145   am
    63    76    75    1
    64    84    83    2
    65   115   117    1
    66    37    36    1
    67    40    43    1
    68    40    39    1
    69    73    72    1
    70    73    81   am
    71    39    33   am
    72    72    75    1
    73    72    71    1
    74    10     9    1
    75    36    38    1
    76    36    35    1
    77    83    82    1
    78     7     8    1
    79     7     6    1
    80   145   146    1
    81    17    16    1
    82    82    81    1
    83    82    85    1
    84     9     8    2
    85     9    11    1
    86   148   147    2
    87    88    87   ar
    88   146   147    1
    89   146   149    1
    90    33    32    1
    91    33    34    2
    92    32    35    1
    93    32    31    1
    94     6     5    1
    95    89    87   ar
    96    87    86    1
    97     5     2    1
    98    30    29    2
    99    16    18    1
   100    16    13    1
   101    85    86    1
   102    61    60    1
   103    31    29   am
   104    59    58    2
   105   149   150    1
   106   149   151    1
   107    29    28    1
   108     4     3    2
   109     3     2    1
   110     3    12   am
   111    13    12    1
   112    13    14    1
   113     2     1    1
   114    66    65    2
   115   150   152    1
   116    58    57    1
   117    58    63   am
   118    60    62    1
   119    60    57    1
   120    28    27    1
   121    57    56    1
   122    65    64    1
   123    27    21   am
   124    19    14   am
   125    19    20    1
   126    14    15    2
   127    64    63    1
   128    64    67    1
   129    24    26    1
   130    24    23    1
   131    69    67    1
   132    70    68    1
   133    21    20    1
   134    21    22    2
   135    20    23    1
   136    67    68    1
   137    23    25    1
   138    55    54    1
   139    54    53   ar
   140    54    52   ar
   141    53    51   ar
   142    52    50   ar
   143    51    49   ar
   144    50    49   ar
   145    49    48    1
   146    48    45    1
   147    45    44    1
   148    45    46    1
   149    46    47    2
