@<TRIPOS>MOLECULE
tmp/2dw5A00.pdb
 135 127 0 0 0
SMALL
GASTEIGER

@<TRIPOS>ATOM
      1  N         28.6230   49.1840   16.5360 N.3   310  TRP310     -0.1241
      2  CA        27.7730   47.9570   16.5780 C.3   310  TRP310      0.1605
      3  C         27.5370   47.3400   15.2090 C.2   310  TRP310      0.2264
      4  O         26.4150   47.3540   14.6840 O.2   310  TRP310     -0.2867
      5  CB        26.4570   48.2300   17.3000 C.3   310  TRP310      0.0550
      6  CG        26.7040   48.8750   18.6260 C.ar  310  TRP310      0.0003
      7  CD1       26.4220   50.1670   18.9890 C.ar  310  TRP310      0.0946
      8  CD2       27.3410   48.2650   19.7530 C.ar  310  TRP310      0.0152
      9  NE1       26.8180   50.3840   20.2940 N.ar  310  TRP310     -0.2442
     10  CE2       27.3920   49.2370   20.7840 C.ar  310  TRP310      0.0810
     11  CE3       27.8600   46.9950   19.9970 C.ar  310  TRP310      0.0012
     12  CZ2       27.9460   48.9660   22.0510 C.ar  310  TRP310      0.0191
     13  CZ3       28.4240   46.7310   21.2630 C.ar  310  TRP310      0.0001
     14  CH2       28.4540   47.7090   22.2640 C.ar  310  TRP310      0.0015
     15  N         24.6790   45.1380   13.9710 N.3   313  ASP313     -0.1239
     16  CA        23.3140   45.5980   14.0850 C.3   313  ASP313      0.1674
     17  C         22.6770   46.2920   12.8500 C.2   313  ASP313      0.2266
     18  O         21.4480   46.2410   12.7070 O.2   313  ASP313     -0.2867
     19  CB        23.2250   46.4810   15.3400 C.3   313  ASP313      0.1410
     20  CG        23.3080   45.6660   16.6520 C.2   313  ASP313      0.3668
     21  OD1       23.0100   44.4400   16.6610 O.co2 313  ASP313     -0.2456
     22  OD2       23.6500   46.2790   17.6800 O.co2 313  ASP313     -0.2456
     23  N         17.6250   50.4970   11.1160 N.3   335  ARG335     -0.1245
     24  CA        18.0390   51.2520   12.3020 C.3   335  ARG335      0.1563
     25  C         18.8310   52.5120   11.9600 C.2   335  ARG335      0.2260
     26  O         18.7910   53.4790   12.7230 O.2   335  ARG335     -0.2867
     27  CB        18.7750   50.3780   13.3240 C.3   335  ARG335      0.0307
     28  CG        20.2080   50.0760   13.0640 C.3   335  ARG335      0.0489
     29  CD        20.9940   49.9940   14.3710 C.3   335  ARG335      0.2205
     30  NE        22.4070   49.8550   14.0470 N.pl3 335  ARG335     -0.0865
     31  CZ        23.4340   50.2210   14.8070 C.cat 335  ARG335      0.5346
     32  NH1       23.2820   50.7400   16.0140 N.pl3 335  ARG335      0.1354
     33  NH2       24.6470   50.0330   14.3420 N.pl3 335  ARG335      0.1354
     34  N         21.7100   53.9880   12.0110 N.3   337  ARG337     -0.1245
     35  CA        22.5840   54.6480   12.9600 C.3   337  ARG337      0.1563
     36  C         23.8450   55.1300   12.1910 C.2   337  ARG337      0.2260
     37  O         23.7880   55.3280   10.9670 O.2   337  ARG337     -0.2867
     38  CB        22.8990   53.6420   14.0600 C.3   337  ARG337      0.0307
     39  CG        22.8820   54.2100   15.4270 C.3   337  ARG337      0.0489
     40  CD        21.4920   54.2630   16.0280 C.3   337  ARG337      0.2205
     41  NE        21.1980   53.1510   16.9380 N.pl3 337  ARG337     -0.0865
     42  CZ        21.8450   52.8630   18.0770 C.cat 337  ARG337      0.5346
     43  NH1       22.9040   53.5460   18.4890 N.pl3 337  ARG337      0.1354
     44  NH2       21.4330   51.8460   18.8120 N.pl3 337  ARG337      0.1354
     45  N         17.3830   46.0020   15.1520 N.3   369  SER369     -0.1217
     46  CA        18.8200   45.7860   14.9950 C.3   369  SER369      0.1889
     47  C         19.0770   44.3000   14.8010 C.2   369  SER369      0.2288
     48  O         18.4180   43.4370   15.4030 O.2   369  SER369     -0.2866
     49  CB        19.6060   46.3390   16.1990 C.3   369  SER369      0.2089
     50  OG        19.3840   47.7540   16.3650 O.3   369  SER369     -0.2183
     51  N         21.3480   42.2270   15.4450 N.3   371  GLY371     -0.1225
     52  CA        21.6830   41.3620   16.5620 C.3   371  GLY371      0.1811
     53  C         20.4510   40.6280   17.0350 C.2   371  GLY371      0.2280
     54  O         20.5660   39.5800   17.7010 O.2   371  GLY371     -0.2866
     55  N         18.4800   45.8510   25.7640 N.3   432  VAL432     -0.1245
     56  CA        18.7410   46.0130   24.3350 C.3   432  VAL432      0.1561
     57  C         17.7210   45.1770   23.5480 C.2   432  VAL432      0.2260
     58  O         17.0930   45.6380   22.6140 O.2   432  VAL432     -0.2867
     59  CB        20.1920   45.5980   24.0280 C.3   432  VAL432      0.0252
     60  CG1       20.4450   45.4920   22.5150 C.3   432  VAL432      0.0019
     61  CG2       21.1760   46.5830   24.7170 C.3   432  VAL432      0.0019
     62  N         18.0040   41.6920   22.2640 N.3   434  HIS434     -0.1241
     63  CA        18.4050   40.8630   21.0850 C.3   434  HIS434      0.1621
     64  C         18.5770   39.4240   21.4140 C.2   434  HIS434      0.2264
     65  O         19.0870   39.0860   22.4890 O.2   434  HIS434     -0.2867
     66  CB        19.7090   41.3530   20.4680 C.3   434  HIS434      0.0745
     67  CG        19.6570   42.7720   20.0070 C.ar  434  HIS434      0.0817
     68  ND1       20.7740   43.4430   19.5570 N.ar  434  HIS434     -0.2268
     69  CD2       18.6310   43.6640   19.9780 C.ar  434  HIS434      0.1154
     70  CE1       20.4370   44.6930   19.2780 C.ar  434  HIS434      0.1986
     71  NE2       19.1420   44.8500   19.5140 N.ar  434  HIS434     -0.2212
     72  N         20.7290   37.4820   20.4160 N.3   436  ASP436     -0.1225
     73  CA        22.1670   37.1490   20.5360 C.3   436  ASP436      0.1805
     74  C         22.6630   37.4100   21.9640 C.2   436  ASP436      0.2597
     75  O         23.6650   36.8860   22.3720 O.2   436  ASP436     -0.2718
     76  CB        23.0390   37.7840   19.4040 C.3   436  ASP436      0.1424
     77  CG        23.2840   39.3180   19.5400 C.2   436  ASP436      0.3668
     78  OD1       24.2030   39.8450   18.7980 O.co2 436  ASP436     -0.2456
     79  OD2       22.5830   40.0220   20.3360 O.co2 436  ASP436     -0.2456
     80  N         21.9000   38.1780   22.7400 N.am  437  GLU437     -0.1979
     81  CA        22.2060   38.3340   24.1460 C.3   437  GLU437      0.1602
     82  C         22.0210   37.1110   25.0020 C.2   437  GLU437      0.2287
     83  O         22.5460   37.0620   26.1160 O.2   437  GLU437     -0.2864
     84  CB        21.3950   39.4720   24.7390 C.3   437  GLU437      0.0415
     85  CG        21.7170   40.7740   24.1100 C.3   437  GLU437      0.1163
     86  CD        20.9940   41.8880   24.7710 C.2   437  GLU437      0.3649
     87  OE1       21.5520   42.4540   25.7440 O.co2 437  GLU437     -0.2457
     88  OE2       19.8410   42.1710   24.3580 O.co2 437  GLU437     -0.2457
     89  N         27.5410   35.8790   23.8790 N.3   551  ASN551     -0.1240
     90  CA        27.5530   36.8350   22.7920 C.3   551  ASN551      0.1653
     91  C         28.9510   36.8580   22.1860 C.2   551  ASN551      0.2266
     92  O         29.7040   37.8350   22.2780 O.2   551  ASN551     -0.2867
     93  CB        27.1050   38.2050   23.3420 C.3   551  ASN551      0.1155
     94  CG        26.9670   39.2350   22.2800 C.2   551  ASN551      0.2627
     95  OD1       27.9620   39.8680   21.8720 O.2   551  ASN551     -0.2716
     96  ND2       25.7530   39.4230   21.8060 N.am  551  ASN551     -0.0877
     97  N         30.5550   48.1350   28.6130 N.3   601  ILE601     -0.1231
     98  CA        30.0010   49.3070   29.3330 C.3   601  ILE601      0.1692
     99  C         29.0000   50.1180   28.5110 C.2   601  ILE601      0.2592
    100  O         28.2190   50.8860   29.0780 O.2   601  ILE601     -0.2718
    101  CB        31.1140   50.2310   29.9260 C.3   601  ILE601      0.0266
    102  CG1       32.0310   50.8100   28.8230 C.3   601  ILE601      0.0019
    103  CG2       31.9070   49.4460   30.9930 C.3   601  ILE601      0.0020
    104  CD1       33.1010   51.7610   29.3520 C.3   601  ILE601      0.0001
    105  N         29.0000   49.9190   27.1930 N.am  602  ARG602     -0.1966
    106  CA        27.9290   50.4500   26.3310 C.3   602  ARG602      0.1729
    107  C         26.9050   49.3830   25.8980 C.2   602  ARG602      0.2616
    108  O         26.2730   49.4940   24.8190 O.2   602  ARG602     -0.2715
    109  CB        28.5310   51.1820   25.1220 C.3   602  ARG602      0.0348
    110  CG        29.1810   52.5070   25.5220 C.3   602  ARG602      0.0492
    111  CD        30.5220   52.7050   24.8760 C.3   602  ARG602      0.2205
    112  NE        30.4390   53.5830   23.7170 N.pl3 602  ARG602     -0.0865
    113  CZ        31.4470   54.3360   23.2740 C.cat 602  ARG602      0.5346
    114  NH1       32.6290   54.3000   23.8900 N.pl3 602  ARG602      0.1354
    115  NH2       31.2700   55.1300   22.2080 N.pl3 602  ARG602      0.1354
    116  N         26.7570   48.3590   26.7480 N.am  603  HIS603     -0.1959
    117  CA        25.6220   47.4210   26.7010 C.3   603  HIS603      0.1787
    118  C         25.7220   46.3710   25.5840 C.2   603  HIS603      0.2620
    119  O         24.7120   45.8750   25.1140 O.2   603  HIS603     -0.2715
    120  CB        24.2820   48.1910   26.6070 C.3   603  HIS603      0.0785
    121  CG        24.0010   49.0830   27.7830 C.ar  603  HIS603      0.0821
    122  ND1       24.9940   49.6520   28.5530 N.ar  603  HIS603     -0.2267
    123  CD2       22.8310   49.5050   28.3180 C.ar  603  HIS603      0.1154
    124  CE1       24.4510   50.3680   29.5190 C.ar  603  HIS603      0.1986
    125  NE2       23.1400   50.3000   29.3970 N.ar  603  HIS603     -0.2212
    126  N         26.9340   46.0060   25.1840 N.am  604  GLY604     -0.1954
    127  CA        27.1270   44.9830   24.1580 C.3   604  GLY604      0.1869
    128  C         28.4940   44.3330   24.2690 C.2   604  GLY604      0.2309
    129  O         29.3100   44.7430   25.0690 O.2   604  GLY604     -0.2863
    130  N         28.1480   41.5810   19.1800 N.3   608  CYS608     -0.1235
    131  CA        27.5520   42.8860   18.8600 C.3   608  CYS608      0.1677
    132  C         28.4820   43.8440   18.0840 C.2   608  CYS608      0.2270
    133  O         27.9990   44.6770   17.3160 O.2   608  CYS608     -0.2867
    134  CB        27.1050   43.5990   20.1350 C.3   608  CYS608      0.0956
    135  SG        26.2070   42.5400   21.2640 S.3   608  CYS608     -0.0801
@<TRIPOS>BOND
     1    37    36    2
     2    23    24    1
     3    25    24    1
     4    25    26    2
     5    34    35    1
     6    36    35    1
     7    24    27    1
     8    18    17    2
     9    17    16    1
    10    35    38    1
    11    28    27    1
    12    28    29    1
    13    15    16    1
    14    30    29    1
    15    30    31    2
    16    38    39    1
    17    16    19    1
    18    33    31    1
    19     4     3    2
    20    47    46    1
    21    47    48    2
    22    31    32    1
    23    46    45    1
    24    46    49    1
    25     3     2    1
    26    19    20    1
    27    39    40    1
    28    51    52    1
    29    40    41    1
    30    49    50    1
    31     1     2    1
    32    52    53    1
    33     2     5    1
    34    20    21   ar
    35    20    22   ar
    36    41    42    2
    37    53    54    2
    38     5     6    1
    39   133   132    2
    40    42    43    1
    41    42    44    1
    42   132   131    1
    43     6     7   ar
    44     6     8   ar
    45    78    77   ar
    46   131   130    1
    47   131   134    1
    48     7     9   ar
    49    70    71   ar
    50    70    68   ar
    51    76    77    1
    52    76    73    1
    53    71    69   ar
    54    77    79   ar
    55    68    67   ar
    56     8    11   ar
    57     8    10   ar
    58    69    67   ar
    59    11    13   ar
    60    67    66    1
    61   134   135    1
    62     9    10   ar
    63    72    73    1
    64    66    63    1
    65    73    74    1
    66    10    12   ar
    67    63    64    1
    68    63    62    1
    69    13    14   ar
    70    64    65    2
    71    96    94   am
    72    95    94    2
    73    74    75    2
    74    74    80   am
    75    12    14   ar
    76    91    92    2
    77    91    90    1
    78   115   113    1
    79    94    93    1
    80    60    59    1
    81    58    57    2
    82    80    81    1
    83    90    93    1
    84    90    89    1
    85   113   112    2
    86   113   114    1
    87    57    56    1
    88   112   111    1
    89    59    56    1
    90    59    61    1
    91    85    84    1
    92    85    86    1
    93    81    84    1
    94    81    82    1
    95   127   128    1
    96   127   126    1
    97   128   129    2
    98    56    55    1
    99    88    86   ar
   100    86    87   ar
   101   108   107    2
   102   111   110    1
   103    82    83    2
   104   119   118    2
   105   109   110    1
   106   109   106    1
   107   126   118   am
   108   118   117    1
   109   107   106    1
   110   107   116   am
   111   106   105    1
   112   120   117    1
   113   120   121    1
   114   117   116    1
   115   105    99   am
   116   121   123   ar
   117   121   122   ar
   118   123   125   ar
   119    99   100    2
   120    99    98    1
   121   122   124   ar
   122    97    98    1
   123   102   104    1
   124   102   101    1
   125    98   101    1
   126   125   124   ar
   127   101   103    1
