@<TRIPOS>MOLECULE
tmp/2dw7G00.pdb
 148 137 0 0 0
SMALL
GASTEIGER

@<TRIPOS>ATOM
      1  N         34.8200   53.7930   76.6400 N.3    20  ASN20      -0.1240
      2  CA        35.5800   53.1140   77.6870 C.3    20  ASN20       0.1653
      3  C         35.6050   54.0700   78.8740 C.2    20  ASN20       0.2266
      4  O         35.0180   55.1520   78.8010 O.2    20  ASN20      -0.2867
      5  CB        36.9940   52.7750   77.2330 C.3    20  ASN20       0.1155
      6  CG        37.7620   53.9830   76.7970 C.2    20  ASN20       0.2627
      7  OD1       37.7010   55.0450   77.4290 O.2    20  ASN20      -0.2716
      8  ND2       38.5090   53.8360   75.7150 N.am   20  ASN20      -0.0877
      9  N         37.3590   57.6240   77.5000 N.3    23  ILE23      -0.1245
     10  CA        36.9290   58.2820   76.2760 C.3    23  ILE23       0.1561
     11  C         35.7730   57.5940   75.5530 C.2    23  ILE23       0.2260
     12  O         35.4290   56.4450   75.8520 O.2    23  ILE23      -0.2867
     13  CB        38.1780   58.3590   75.3130 C.3    23  ILE23       0.0252
     14  CG1       38.6660   59.7910   75.2240 C.3    23  ILE23       0.0019
     15  CG2       37.9050   57.7340   73.9480 C.3    23  ILE23       0.0019
     16  CD1       39.3570   60.2410   76.4770 C.3    23  ILE23       0.0001
     17  N         34.4050   57.2550   71.4020 N.3    25  PHE25      -0.1241
     18  CA        34.9370   57.4830   70.0650 C.3    25  PHE25       0.1605
     19  C         34.0520   58.2550   69.0960 C.2    25  PHE25       0.2264
     20  O         34.1580   58.1080   67.8780 O.2    25  PHE25      -0.2867
     21  CB        35.3620   56.1410   69.4700 C.3    25  PHE25       0.0534
     22  CG        36.5320   55.5150   70.1840 C.ar   25  PHE25      -0.0203
     23  CD1       36.4800   55.2710   71.5510 C.ar   25  PHE25      -0.0042
     24  CD2       37.6880   55.1810   69.4940 C.ar   25  PHE25      -0.0042
     25  CE1       37.5580   54.7060   72.2180 C.ar   25  PHE25      -0.0003
     26  CE2       38.7770   54.6120   70.1570 C.ar   25  PHE25      -0.0003
     27  CZ        38.7080   54.3770   71.5190 C.ar   25  PHE25      -0.0000
     28  N         43.8680   53.7060   66.5300 N.3    54  ASN54      -0.1225
     29  CA        42.7220   54.4180   67.0840 C.3    54  ASN54       0.1785
     30  C         43.0760   55.0440   68.4370 C.2    54  ASN54       0.2597
     31  O         44.0100   54.6060   69.1030 O.2    54  ASN54      -0.2718
     32  CB        41.5810   53.4460   67.3270 C.3    54  ASN54       0.1169
     33  CG        41.9360   52.4220   68.3760 C.2    54  ASN54       0.2627
     34  OD1       42.6410   51.4520   68.0930 O.2    54  ASN54      -0.2716
     35  ND2       41.4820   52.6460   69.6080 N.am   54  ASN54      -0.0877
     36  N         42.3140   56.0590   68.8370 N.am   55  GLY55      -0.1957
     37  CA        42.5240   56.6780   70.1320 C.3    55  GLY55       0.1869
     38  C         43.2200   58.0200   70.2000 C.2    55  GLY55       0.2309
     39  O         42.9230   58.8090   71.0920 O.2    55  GLY55      -0.2863
     40  N         40.1870   42.6490   70.8180 N.3   152  ALA152     -0.1245
     41  CA        39.8990   43.7010   71.7820 C.3   152  ALA152      0.1562
     42  C         38.5720   44.3990   71.5000 C.2   152  ALA152      0.2260
     43  O         38.3480   44.9210   70.4070 O.2   152  ALA152     -0.2867
     44  CB        41.0280   44.7280   71.7790 C.3   152  ALA152      0.0290
     45  N         33.3620   47.1770   74.6420 N.3   155  TYR155     -0.1241
     46  CA        33.1510   48.5700   74.9840 C.3   155  TYR155      0.1605
     47  C         31.7720   48.7790   75.6130 C.2   155  TYR155      0.2264
     48  O         30.9100   47.8990   75.5820 O.2   155  TYR155     -0.2867
     49  CB        33.2820   49.4450   73.7350 C.3   155  TYR155      0.0534
     50  CG        34.7070   49.7020   73.3030 C.ar  155  TYR155     -0.0201
     51  CD1       35.3940   50.8460   73.7330 C.ar  155  TYR155     -0.0009
     52  CD2       35.3910   48.7850   72.5020 C.ar  155  TYR155     -0.0009
     53  CE1       36.7330   51.0660   73.3750 C.ar  155  TYR155      0.0417
     54  CE2       36.7280   48.9950   72.1430 C.ar  155  TYR155      0.0417
     55  CZ        37.3930   50.1330   72.5810 C.ar  155  TYR155      0.1957
     56  OH        38.7150   50.3240   72.2320 O.3   155  TYR155     -0.2866
     57  N         39.6010   40.9970   75.0980 N.3   181  LYS181     -0.1245
     58  CA        39.6820   42.0400   76.1140 C.3   181  LYS181      0.1561
     59  C         38.4350   42.9580   76.1100 C.2   181  LYS181      0.2260
     60  O         37.9670   43.3790   75.0380 O.2   181  LYS181     -0.2867
     61  CB        40.9530   42.8880   75.8900 C.3   181  LYS181      0.0271
     62  CG        41.1910   43.9790   76.9520 C.3   181  LYS181      0.0035
     63  CD        42.4320   44.8330   76.6410 C.3   181  LYS181      0.0206
     64  CE        42.3810   45.4100   75.2550 C.3   181  LYS181      0.1093
     65  NZ        43.4250   46.4330   74.9630 N.3   181  LYS181     -0.1314
     66  N         36.4270   46.4820   78.1530 N.3   183  LYS183     -0.1245
     67  CA        36.6890   47.6950   78.9250 C.3   183  LYS183      0.1561
     68  C         36.0560   47.6490   80.3250 C.2   183  LYS183      0.2260
     69  O         35.0740   46.9360   80.5320 O.2   183  LYS183     -0.2867
     70  CB        36.1710   48.9070   78.1480 C.3   183  LYS183      0.0271
     71  CG        36.8840   49.1140   76.8180 C.3   183  LYS183      0.0035
     72  CD        38.3740   48.8210   76.9760 C.3   183  LYS183      0.0206
     73  CE        39.1610   48.9750   75.6960 C.3   183  LYS183      0.1093
     74  NZ        39.3780   50.3990   75.3450 N.3   183  LYS183     -0.1314
     75  N         40.4310   46.1840   80.6450 N.3   212  ASP212     -0.1239
     76  CA        41.1660   47.4110   80.4140 C.3   212  ASP212      0.1674
     77  C         40.4430   48.6240   81.0280 C.2   212  ASP212      0.2266
     78  O         39.3390   48.9740   80.6020 O.2   212  ASP212     -0.2867
     79  CB        41.3260   47.5870   78.9060 C.3   212  ASP212      0.1410
     80  CG        42.1610   48.7830   78.5280 C.2   212  ASP212      0.3668
     81  OD1       42.5360   49.5750   79.4240 O.co2 212  ASP212     -0.2456
     82  OD2       42.4440   48.9380   77.3150 O.co2 212  ASP212     -0.2456
     83  N         41.6460   51.6740   80.9190 N.3   214  ASN214     -0.1240
     84  CA        42.0490   52.8660   80.1850 C.3   214  ASN214      0.1653
     85  C         42.6780   53.9900   81.0010 C.2   214  ASN214      0.2266
     86  O         42.5110   55.1560   80.6720 O.2   214  ASN214     -0.2867
     87  CB        40.8570   53.4020   79.3960 C.3   214  ASN214      0.1155
     88  CG        40.5770   52.5830   78.1490 C.2   214  ASN214      0.2627
     89  OD1       41.2120   52.7780   77.1190 O.2   214  ASN214     -0.2716
     90  ND2       39.6310   51.6480   78.2460 N.am  214  ASN214     -0.0877
     91  N         44.7350   45.7480   82.4810 N.3   238  GLU238     -0.1231
     92  CA        45.4210   46.7760   81.7070 C.3   238  GLU238      0.1699
     93  C         45.2050   48.2230   82.0970 C.2   238  GLU238      0.2592
     94  O         44.1210   48.6190   82.4680 O.2   238  GLU238     -0.2718
     95  CB        45.0620   46.6130   80.2160 C.3   238  GLU238      0.0402
     96  CG        45.5910   47.7140   79.2730 C.3   238  GLU238      0.1161
     97  CD        45.2270   47.4610   77.8020 C.2   238  GLU238      0.3649
     98  OE1       45.1180   46.2610   77.4310 O.co2 238  GLU238     -0.2457
     99  OE2       45.0740   48.4500   77.0240 O.co2 238  GLU238     -0.2457
    100  N         46.2640   49.0090   81.9570 N.am  239  GLU239     -0.1979
    101  CA        46.2830   50.4370   82.2470 C.3   239  GLU239      0.1602
    102  C         45.3600   50.8600   83.3980 C.2   239  GLU239      0.2287
    103  O         44.3580   51.5620   83.1940 O.2   239  GLU239     -0.2864
    104  CB        45.9640   51.2110   80.9590 C.3   239  GLU239      0.0415
    105  CG        46.2870   52.6820   81.0100 C.3   239  GLU239      0.1163
    106  CD        46.1960   53.3630   79.6570 C.2   239  GLU239      0.3649
    107  OE1       45.1830   53.1460   78.9410 O.co2 239  GLU239     -0.2457
    108  OE2       47.1270   54.1320   79.3100 O.co2 239  GLU239     -0.2457
    109  N         50.3580   51.6260   76.1140 N.3   264  GLU264     -0.1245
    110  CA        49.7870   52.1480   74.8700 C.3   264  GLU264      0.1567
    111  C         49.8690   53.6580   74.7840 C.2   264  GLU264      0.2260
    112  O         49.9590   54.2110   73.6970 O.2   264  GLU264     -0.2867
    113  CB        48.3200   51.7290   74.7230 C.3   264  GLU264      0.0388
    114  CG        47.3760   52.4160   75.6910 C.3   264  GLU264      0.1160
    115  CD        45.9350   51.9630   75.5170 C.2   264  GLU264      0.3649
    116  OE1       45.6410   50.7630   75.7580 O.co2 264  GLU264     -0.2457
    117  OE2       45.0950   52.8130   75.1450 O.co2 264  GLU264     -0.2457
    118  N         49.7530   47.9390   70.9950 N.3   321  HIS321     -0.1241
    119  CA        48.3720   48.3710   70.9130 C.3   321  HIS321      0.1621
    120  C         48.2080   48.8510   69.4690 C.2   321  HIS321      0.2264
    121  O         49.2070   49.0770   68.7740 O.2   321  HIS321     -0.2867
    122  CB        48.1430   49.5250   71.9040 C.3   321  HIS321      0.0745
    123  CG        47.0950   50.5060   71.4720 C.ar  321  HIS321      0.0817
    124  ND1       47.3050   51.4330   70.4730 N.ar  321  HIS321     -0.2268
    125  CD2       45.8240   50.6840   71.8930 C.ar  321  HIS321      0.1154
    126  CE1       46.2050   52.1380   70.2950 C.ar  321  HIS321      0.1986
    127  NE2       45.2920   51.7030   71.1440 N.ar  321  HIS321     -0.2212
    128  N         47.5870   43.2370   69.1080 N.3   340  GLU340     -0.1245
    129  CA        46.1900   43.4700   69.4290 C.3   340  GLU340      0.1567
    130  C         45.4200   43.4160   68.1140 C.2   340  GLU340      0.2260
    131  O         45.9910   43.6290   67.0420 O.2   340  GLU340     -0.2867
    132  CB        46.0190   44.8500   70.0770 C.3   340  GLU340      0.0388
    133  CG        44.6180   45.1240   70.6140 C.3   340  GLU340      0.1160
    134  CD        44.4990   46.4760   71.3050 C.2   340  GLU340      0.3649
    135  OE1       43.5380   46.6560   72.0870 O.co2 340  GLU340     -0.2457
    136  OE2       45.3540   47.3570   71.0580 O.co2 340  GLU340     -0.2457
    137  N         41.3680   44.3540   66.3320 N.3   342  TYR342     -0.1241
    138  CA        40.0060   44.8760   66.4530 C.3   342  TYR342      0.1605
    139  C         39.1600   44.2830   65.3390 C.2   342  TYR342      0.2264
    140  O         39.1010   44.8350   64.2420 O.2   342  TYR342     -0.2867
    141  CB        39.9850   46.3950   66.3130 C.3   342  TYR342      0.0534
    142  CG        40.8240   47.0990   67.3240 C.ar  342  TYR342     -0.0201
    143  CD1       40.5730   46.9520   68.6910 C.ar  342  TYR342     -0.0009
    144  CD2       41.8660   47.9270   66.9210 C.ar  342  TYR342     -0.0009
    145  CE1       41.3380   47.6190   69.6290 C.ar  342  TYR342      0.0417
    146  CE2       42.6400   48.5970   67.8450 C.ar  342  TYR342      0.0417
    147  CZ        42.3730   48.4440   69.1960 C.ar  342  TYR342      0.1957
    148  OH        43.1410   49.1260   70.1020 O.3   342  TYR342     -0.2866
@<TRIPOS>BOND
     1   140   139    2
     2   139   138    1
     3   141   138    1
     4   141   142    1
     5   137   138    1
     6    28    29    1
     7   144   142   ar
     8   144   146   ar
     9   131   130    2
    10    29    32    1
    11    29    30    1
    12   142   143   ar
    13    32    33    1
    14   146   147   ar
    15    20    19    2
    16    34    33    2
    17   130   129    1
    18    33    35   am
    19    30    36   am
    20    30    31    2
    21   143   145   ar
    22   121   120    2
    23    36    37    1
    24    19    18    1
    25   128   129    1
    26   147   145   ar
    27   147   148    1
    28   129   132    1
    29   120   119    1
    30    21    18    1
    31    21    22    1
    32    24    26   ar
    33    24    22   ar
    34    18    17    1
    35   132   133    1
    36    37    38    1
    37    26    27   ar
    38    22    23   ar
    39    38    39    2
    40   126   124   ar
    41   126   127   ar
    42    43    42    2
    43   124   123   ar
    44   133   134    1
    45    40    41    1
    46   119   118    1
    47   119   122    1
    48   136   134   ar
    49   127   125   ar
    50   134   135   ar
    51   123   125   ar
    52   123   122    1
    53    42    41    1
    54    27    25   ar
    55    23    25   ar
    56    44    41    1
    57    54    52   ar
    58    54    55   ar
    59    56    55    1
    60    52    50   ar
    61    55    53   ar
    62    50    51   ar
    63    50    49    1
    64    53    51   ar
    65   112   111    2
    66    49    46    1
    67    15    13    1
    68    45    46    1
    69   113   110    1
    70   113   114    1
    71   111   110    1
    72   110   109    1
    73    65    64    1
    74    46    47    1
    75    60    59    2
    76    57    58    1
    77   117   115   ar
    78    14    13    1
    79    14    16    1
    80    64    63    1
    81    13    10    1
    82    74    73    1
    83   115   114    1
    84   115   116   ar
    85    11    12    2
    86    11    10    1
    87    48    47    2
    88    73    72    1
    89     8     6   am
    90    61    58    1
    91    61    62    1
    92    59    58    1
    93    10     9    1
    94     1     2    1
    95    63    62    1
    96     6     5    1
    97     6     7    2
    98    71    72    1
    99    71    70    1
   100    99    97   ar
   101    89    88    2
   102     5     2    1
   103    82    80   ar
   104    98    97   ar
   105     2     3    1
   106    97    96    1
   107    70    67    1
   108    88    90   am
   109    88    87    1
   110    66    67    1
   111    80    79    1
   112    80    81   ar
   113     4     3    2
   114    79    76    1
   115    67    68    1
   116   107   106   ar
   117    96    95    1
   118   108   106   ar
   119    87    84    1
   120   106   105    1
   121    84    83    1
   122    84    85    1
   123    95    92    1
   124    68    69    2
   125    76    75    1
   126    76    77    1
   127    78    77    2
   128    86    85    2
   129   104   105    1
   130   104   101    1
   131    92    93    1
   132    92    91    1
   133   100    93   am
   134   100   101    1
   135    93    94    2
   136   101   102    1
   137   103   102    2
