@<TRIPOS>MOLECULE
tmp/2dwbA00.pdb
 200 190 0 0 0
SMALL
GASTEIGER

@<TRIPOS>ATOM
      1  N         16.5320   57.0890   61.7980 N.3    14  LEU14      -0.1231
      2  CA        15.0910   57.2140   61.8590 C.3    14  LEU14       0.1693
      3  C         14.5980   58.4480   61.0770 C.2    14  LEU14       0.2593
      4  O         13.4480   58.5030   60.6370 O.2    14  LEU14      -0.2718
      5  CB        14.6530   57.2860   63.3270 C.3    14  LEU14       0.0284
      6  CG        14.8910   56.0500   64.2030 C.3    14  LEU14       0.0019
      7  CD1       14.5740   56.3840   65.6580 C.3    14  LEU14       0.0001
      8  CD2       14.0070   54.9020   63.7360 C.3    14  LEU14       0.0001
      9  N         15.4670   59.4360   60.9000 N.am   15  GLY15      -0.1942
     10  CA        15.0690   60.6260   60.1700 C.3    15  GLY15       0.2014
     11  C         16.2060   61.6020   59.9510 C.2    15  GLY15       0.2639
     12  O         17.2790   61.4590   60.5340 O.2    15  GLY15      -0.2714
     13  N         15.9740   62.5890   59.0920 N.am   16  LYS16      -0.1963
     14  CA        16.9720   63.6130   58.7920 C.3    16  LYS16       0.1728
     15  C         16.5380   64.8930   59.4870 C.2    16  LYS16       0.2617
     16  O         15.5310   65.4890   59.1140 O.2    16  LYS16      -0.2715
     17  CB        17.0420   63.8970   57.2890 C.3    16  LYS16       0.0311
     18  CG        17.2740   62.6960   56.3790 C.3    16  LYS16       0.0038
     19  CD        16.9690   63.0800   54.9220 C.3    16  LYS16       0.0206
     20  CE        17.1770   61.9250   53.9540 C.3    16  LYS16       0.1093
     21  NZ        18.6160   61.5810   53.7970 N.3    16  LYS16      -0.1314
     22  N         17.2870   65.3100   60.5030 N.am   17  GLY17      -0.1940
     23  CA        16.9510   66.5380   61.2000 C.3    17  GLY17       0.2014
     24  C         17.4970   67.7030   60.4010 C.2    17  GLY17       0.2639
     25  O         17.9380   67.5280   59.2610 O.2    17  GLY17      -0.2714
     26  N         17.4710   68.8960   60.9820 N.am   18  LYS18      -0.1963
     27  CA        17.9950   70.0600   60.2840 C.3    18  LYS18       0.1728
     28  C         19.4770   70.2450   60.5840 C.2    18  LYS18       0.2616
     29  O         20.1740   70.9470   59.8620 O.2    18  LYS18      -0.2715
     30  CB        17.2040   71.3090   60.6730 C.3    18  LYS18       0.0311
     31  CG        16.9220   71.4090   62.1520 C.3    18  LYS18       0.0038
     32  CD        15.8210   72.4160   62.4460 C.3    18  LYS18       0.0206
     33  CE        15.4700   72.4070   63.9320 C.3    18  LYS18       0.1093
     34  NZ        14.4990   73.4800   64.2940 N.3    18  LYS18      -0.1314
     35  N         19.9660   69.5940   61.6340 N.am   19  PHE19      -0.1974
     36  CA        21.3720   69.7100   62.0030 C.3    19  PHE19       0.1639
     37  C         22.0000   68.3460   62.2490 C.2    19  PHE19       0.2290
     38  O         22.9590   68.2140   63.0070 O.2    19  PHE19      -0.2864
     39  CB        21.5110   70.5770   63.2550 C.3    19  PHE19       0.0560
     40  CG        20.9280   71.9520   63.1010 C.ar   19  PHE19      -0.0200
     41  CD1       21.4270   72.8270   62.1410 C.ar   19  PHE19      -0.0042
     42  CD2       19.8570   72.3590   63.8900 C.ar   19  PHE19      -0.0042
     43  CE1       20.8650   74.0890   61.9650 C.ar   19  PHE19      -0.0003
     44  CE2       19.2870   73.6190   63.7230 C.ar   19  PHE19      -0.0003
     45  CZ        19.7920   74.4860   62.7570 C.ar   19  PHE19      -0.0000
     46  N         18.5420   61.4540   63.2760 N.3    22  VAL22      -0.1245
     47  CA        17.9970   60.8120   64.4610 C.3    22  VAL22       0.1561
     48  C         18.2370   59.3200   64.2640 C.2    22  VAL22       0.2260
     49  O         17.9820   58.7870   63.1860 O.2    22  VAL22      -0.2867
     50  CB        16.4730   61.0840   64.5970 C.3    22  VAL22       0.0252
     51  CG1       15.9150   60.4150   65.8680 C.3    22  VAL22       0.0019
     52  CG2       16.2300   62.5840   64.6320 C.3    22  VAL22       0.0019
     53  N         15.5960   56.8240   70.9190 N.3    35  ALA35      -0.1245
     54  CA        16.0960   57.5580   69.7620 C.3    35  ALA35       0.1562
     55  C         17.1690   58.5790   70.1630 C.2    35  ALA35       0.2260
     56  O         17.1300   59.1610   71.2520 O.2    35  ALA35      -0.2867
     57  CB        14.9450   58.2530   69.0510 C.3    35  ALA35       0.0290
     58  N         18.7890   62.0100   68.8420 N.3    37  LYS37      -0.1245
     59  CA        18.7570   63.1410   67.9170 C.3    37  LYS37       0.1561
     60  C         20.1620   63.7260   67.9500 C.2    37  LYS37       0.2260
     61  O         20.5990   64.2420   68.9770 O.2    37  LYS37      -0.2867
     62  CB        17.7300   64.1730   68.3860 C.3    37  LYS37       0.0271
     63  CG        17.5950   65.3880   67.4870 C.3    37  LYS37       0.0035
     64  CD        16.3130   66.1540   67.8090 C.3    37  LYS37       0.0206
     65  CE        16.1110   67.3420   66.8690 C.3    37  LYS37       0.1093
     66  NZ        14.7530   67.9310   67.0260 N.3    37  LYS37      -0.1314
     67  N         22.7860   66.4790   66.7630 N.3    39  LEU39      -0.1245
     68  CA        22.9790   67.7950   66.1550 C.3    39  LEU39       0.1561
     69  C         24.4520   68.2080   66.1940 C.2    39  LEU39       0.2260
     70  O         25.1160   68.0820   67.2280 O.2    39  LEU39      -0.2867
     71  CB        22.1190   68.8450   66.8680 C.3    39  LEU39       0.0270
     72  CG        20.6480   68.4480   67.0270 C.3    39  LEU39       0.0019
     73  CD1       20.4930   67.5930   68.2740 C.3    39  LEU39       0.0001
     74  CD2       19.7830   69.6770   67.1460 C.3    39  LEU39       0.0001
     75  N          5.7590   63.4190   73.0160 N.3    69  LEU69      -0.1245
     76  CA         6.9650   62.5990   73.0330 C.3    69  LEU69       0.1561
     77  C          7.8670   62.9820   74.1890 C.2    69  LEU69       0.2260
     78  O          8.1280   64.1570   74.4500 O.2    69  LEU69      -0.2867
     79  CB         7.7520   62.7340   71.7360 C.3    69  LEU69       0.0270
     80  CG         8.9400   61.7730   71.6650 C.3    69  LEU69       0.0019
     81  CD1        8.4150   60.3530   71.4450 C.3    69  LEU69       0.0001
     82  CD2        9.8720   62.1790   70.5370 C.3    69  LEU69       0.0001
     83  N         15.7630   60.7180   73.1880 N.3    85  LEU85      -0.1231
     84  CA        14.3180   60.7250   73.0390 C.3    85  LEU85       0.1693
     85  C         13.6040   59.3920   73.1320 C.2    85  LEU85       0.2592
     86  O         14.1730   58.3350   72.8790 O.2    85  LEU85      -0.2718
     87  CB        13.9570   61.3340   71.6810 C.3    85  LEU85       0.0284
     88  CG        14.6400   62.6270   71.2210 C.3    85  LEU85       0.0019
     89  CD1       14.0230   63.0820   69.8920 C.3    85  LEU85       0.0001
     90  CD2       14.4640   63.7110   72.2680 C.3    85  LEU85       0.0001
     91  N         12.3310   59.4650   73.4830 N.am   86  GLU86      -0.1966
     92  CA        11.4900   58.2880   73.5270 C.3    86  GLU86       0.1733
     93  C         11.3650   57.9340   72.0580 C.2    86  GLU86       0.2616
     94  O         11.1260   58.8070   71.2200 O.2    86  GLU86      -0.2715
     95  CB        10.0990   58.6330   74.0670 C.3    86  GLU86       0.0429
     96  CG         9.0510   57.5440   73.8480 C.3    86  GLU86       0.1163
     97  CD         7.6550   58.0000   74.2400 C.2    86  GLU86       0.3649
     98  OE1        6.7110   57.1780   74.1710 O.co2  86  GLU86      -0.2457
     99  OE2        7.4950   59.1850   74.6110 O.co2  86  GLU86      -0.2457
    100  N         11.5340   56.6610   71.7390 N.am   87  TYR87      -0.1960
    101  CA        11.4340   56.2140   70.3670 C.3    87  TYR87       0.1771
    102  C          9.9620   55.9560   69.9820 C.2    87  TYR87       0.2619
    103  O          9.2120   55.3360   70.7380 O.2    87  TYR87      -0.2715
    104  CB        12.3040   54.9620   70.2300 C.3    87  TYR87       0.0574
    105  CG        11.9080   53.9740   69.1650 C.ar   87  TYR87      -0.0198
    106  CD1       11.7200   52.6310   69.4900 C.ar   87  TYR87      -0.0009
    107  CD2       11.7790   54.3540   67.8320 C.ar   87  TYR87      -0.0009
    108  CE1       11.4200   51.6900   68.5140 C.ar   87  TYR87       0.0417
    109  CE2       11.4810   53.4260   66.8570 C.ar   87  TYR87       0.0417
    110  CZ        11.3040   52.0920   67.2050 C.ar   87  TYR87       0.1957
    111  OH        11.0080   51.1500   66.2480 O.3    87  TYR87      -0.2866
    112  N          9.5430   56.4790   68.8280 N.am   88  ALA88      -0.1977
    113  CA         8.1770   56.2800   68.3180 C.3    88  ALA88       0.1597
    114  C          8.2700   55.1780   67.2400 C.2    88  ALA88       0.2287
    115  O          8.7570   55.4200   66.1400 O.2    88  ALA88      -0.2864
    116  CB         7.6560   57.5720   67.7190 C.3    88  ALA88       0.0319
    117  N          6.5710   55.5450   63.2950 N.3    91  GLY91      -0.1210
    118  CA         6.8790   56.7160   62.4830 C.3    91  GLY91       0.1956
    119  C          5.9890   57.9540   62.5480 C.2    91  GLY91       0.2612
    120  O          5.2110   58.1510   63.4920 O.2    91  GLY91      -0.2717
    121  N          6.1010   58.7930   61.5170 N.am   92  THR92      -0.1952
    122  CA         5.3430   60.0380   61.4490 C.3    92  THR92       0.1897
    123  C          3.9650   59.9950   60.8030 C.2    92  THR92       0.2313
    124  O          3.6900   59.1710   59.9240 O.2    92  THR92      -0.2863
    125  CB         6.1160   61.1170   60.6930 C.3    92  THR92       0.1794
    126  OG1        6.1560   60.7790   59.3030 O.3    92  THR92      -0.2208
    127  CG2        7.5150   61.2420   61.2300 C.3    92  THR92       0.0378
    128  N          5.3110   74.6540   66.0180 N.3   131  ASP131     -0.1239
    129  CA         5.8160   73.9660   64.8330 C.3   131  ASP131      0.1674
    130  C          5.0400   72.6720   64.5870 C.2   131  ASP131      0.2266
    131  O          5.5890   71.6380   64.1790 O.2   131  ASP131     -0.2867
    132  CB         7.3120   73.6810   64.9590 C.3   131  ASP131      0.1410
    133  CG         7.9650   73.3650   63.6070 C.2   131  ASP131      0.3668
    134  OD1        7.3290   73.6070   62.5580 O.co2 131  ASP131     -0.2456
    135  OD2        9.1180   72.8840   63.5910 O.co2 131  ASP131     -0.2456
    136  N          3.1810   70.1820   62.7150 N.3   133  LYS133     -0.1245
    137  CA         3.0540   69.7560   61.3320 C.3   133  LYS133      0.1561
    138  C          3.2540   68.2500   61.2780 C.2   133  LYS133      0.2260
    139  O          3.8960   67.6690   62.1470 O.2   133  LYS133     -0.2867
    140  CB         4.0520   70.4860   60.4330 C.3   133  LYS133      0.0271
    141  CG         5.5130   70.3710   60.8020 C.3   133  LYS133      0.0035
    142  CD         6.2860   71.4030   59.9780 C.3   133  LYS133      0.0206
    143  CE         7.7470   71.5570   60.3960 C.3   133  LYS133      0.1093
    144  NZ         8.2980   72.8830   59.9460 N.3   133  LYS133     -0.1314
    145  N          5.2510   66.0390   60.0030 N.3   135  GLU135     -0.1231
    146  CA         6.5400   65.4460   60.3500 C.3   135  GLU135      0.1699
    147  C          6.9840   65.5990   61.8090 C.2   135  GLU135      0.2592
    148  O          8.0450   65.1080   62.1810 O.2   135  GLU135     -0.2718
    149  CB         7.6560   65.9430   59.4190 C.3   135  GLU135      0.0402
    150  CG         7.6800   67.4200   59.1750 C.3   135  GLU135      0.1161
    151  CD         7.0160   67.7860   57.8620 C.2   135  GLU135      0.3649
    152  OE1        7.7490   68.0190   56.8740 O.co2 135  GLU135     -0.2457
    153  OE2        5.7640   67.8270   57.8170 O.co2 135  GLU135     -0.2457
    154  N          6.1860   66.2570   62.6410 N.am  136  ASN136     -0.1974
    155  CA         6.5460   66.3930   64.0570 C.3   136  ASN136      0.1688
    156  C          5.5660   65.6080   64.9120 C.2   136  ASN136      0.2292
    157  O          5.6020   65.6650   66.1510 O.2   136  ASN136     -0.2864
    158  CB         6.5530   67.8530   64.5130 C.3   136  ASN136      0.1181
    159  CG         7.7240   68.6210   63.9650 C.2   136  ASN136      0.2629
    160  OD1        8.6770   68.0310   63.4730 O.2   136  ASN136     -0.2716
    161  ND2        7.6680   69.9460   64.0570 N.am  136  ASN136     -0.0877
    162  N          4.4920   61.9630   65.8830 N.3   138  LEU138     -0.1245
    163  CA         4.9690   60.5900   65.8900 C.3   138  LEU138      0.1561
    164  C          3.9030   59.6400   66.4130 C.2   138  LEU138      0.2260
    165  O          3.0360   60.0270   67.1900 O.2   138  LEU138     -0.2867
    166  CB         6.2390   60.5010   66.7420 C.3   138  LEU138      0.0270
    167  CG         7.2890   61.5390   66.3520 C.3   138  LEU138      0.0019
    168  CD1        8.6050   61.2820   67.0580 C.3   138  LEU138      0.0001
    169  CD2        7.4870   61.4820   64.8500 C.3   138  LEU138      0.0001
    170  N          5.9980   65.9740   68.8650 N.3   148  ALA148     -0.1231
    171  CA         7.4220   65.8990   69.1000 C.3   148  ALA148      0.1694
    172  C          8.0810   67.1370   68.5530 C.2   148  ALA148      0.2592
    173  O          7.4250   67.9880   67.9690 O.2   148  ALA148     -0.2718
    174  CB         7.9940   64.6670   68.4150 C.3   148  ALA148      0.0304
    175  N          9.3890   67.2160   68.7540 N.am  149  ASP149     -0.1974
    176  CA        10.2180   68.3110   68.2770 C.3   149  ASP149      0.1709
    177  C          9.8780   69.7050   68.8050 C.2   149  ASP149      0.2293
    178  O          9.2740   70.5300   68.1050 O.2   149  ASP149     -0.2864
    179  CB        10.2310   68.3280   66.7440 C.3   149  ASP149      0.1436
    180  CG        11.1090   69.4280   66.1980 C.2   149  ASP149      0.3671
    181  OD1       11.2410   69.5650   64.9730 O.co2 149  ASP149     -0.2456
    182  OD2       11.6750   70.1700   67.0170 O.co2 149  ASP149     -0.2456
    183  N         11.7730   72.1480   69.1890 N.3   151  GLY151     -0.1210
    184  CA        12.8280   73.0640   68.7810 C.3   151  GLY151      0.1956
    185  C         12.3790   74.4860   68.4790 C.2   151  GLY151      0.2611
    186  O         13.1980   75.3420   68.1880 O.2   151  GLY151     -0.2717
    187  N         11.0760   74.7420   68.5320 N.am  152  TRP152     -0.1976
    188  CA        10.5410   76.0790   68.2830 C.3   152  TRP152      0.1640
    189  C          9.6710   76.5370   69.4440 C.2   152  TRP152      0.2290
    190  O          9.1800   77.6580   69.4490 O.2   152  TRP152     -0.2864
    191  CB         9.7050   76.1120   66.9980 C.3   152  TRP152      0.0576
    192  CG        10.4570   76.5450   65.7800 C.ar  152  TRP152      0.0006
    193  CD1       11.1520   75.7510   64.9180 C.ar  152  TRP152      0.0946
    194  CD2       10.5840   77.8830   65.2870 C.ar  152  TRP152      0.0152
    195  NE1       11.7010   76.5090   63.9150 N.ar  152  TRP152     -0.2442
    196  CE2       11.3670   77.8230   64.1170 C.ar  152  TRP152      0.0810
    197  CE3       10.1080   79.1290   65.7220 C.ar  152  TRP152      0.0012
    198  CZ2       11.6890   78.9680   63.3670 C.ar  152  TRP152      0.0191
    199  CZ3       10.4260   80.2690   64.9780 C.ar  152  TRP152      0.0001
    200  CH2       11.2090   80.1780   63.8130 C.ar  152  TRP152      0.0015
@<TRIPOS>BOND
     1    21    20    1
     2    20    19    1
     3    19    18    1
     4    18    17    1
     5   152   151   ar
     6    17    14    1
     7   153   151   ar
     8   151   150    1
     9    14    13    1
    10    14    15    1
    11    13    11   am
    12    16    15    2
    13   150   149    1
    14    25    24    2
    15   126   125    1
    16   149   146    1
    17    15    22   am
    18    29    28    2
    19   124   123    2
    20   144   143    1
    21    11    10    1
    22    11    12    2
    23   142   143    1
    24   142   141    1
    25   145   146    1
    26    10     9    1
    27    27    28    1
    28    27    30    1
    29    27    26    1
    30   146   147    1
    31    24    26   am
    32    24    23    1
    33   140   141    1
    34   140   137    1
    35    22    23    1
    36    28    35   am
    37     4     3    2
    38    30    31    1
    39   125   127    1
    40   125   122    1
    41   123   122    1
    42     9     3   am
    43     3     2    1
    44   138   137    1
    45   138   139    2
    46   137   136    1
    47   122   121    1
    48   121   119   am
    49    35    36    1
    50     1     2    1
    51   147   148    2
    52   147   154   am
    53     2     5    1
    54    43    41   ar
    55    43    45   ar
    56    36    37    1
    57    36    39    1
    58    41    40   ar
    59    31    32    1
    60    37    38    2
    61    32    33    1
    62   118   119    1
    63   118   117    1
    64   119   120    2
    65   134   133   ar
    66   154   155    1
    67    45    44   ar
    68    40    39    1
    69    40    42   ar
    70    49    48    2
    71    46    47    1
    72     5     6    1
    73   198   200   ar
    74   198   196   ar
    75   160   159    2
    76   135   133   ar
    77   133   132    1
    78    44    42   ar
    79     8     6    1
    80   200   199   ar
    81   195   196   ar
    82   195   193   ar
    83    33    34    1
    84   159   161   am
    85   159   158    1
    86   155   158    1
    87   155   156    1
    88   196   194   ar
    89   131   130    2
    90     6     7    1
    91    48    47    1
    92    47    50    1
    93   130   129    1
    94    50    52    1
    95    50    51    1
    96   129   132    1
    97   129   128    1
    98   169   167    1
    99   156   157    2
   100   193   192   ar
   101   181   180   ar
   102   199   197   ar
   103   194   197   ar
   104   194   192   ar
   105   192   191    1
   106   162   163    1
   107   163   164    1
   108   163   166    1
   109   115   114    2
   110    68    69    1
   111    68    67    1
   112    68    71    1
   113    69    70    2
   114   180   179    1
   115   180   182   ar
   116   111   110    1
   117   167   166    1
   118   167   168    1
   119   164   165    2
   120   179   176    1
   121   109   110   ar
   122   109   107   ar
   123    71    72    1
   124    65    66    1
   125    65    64    1
   126   191   188    1
   127    72    74    1
   128    72    73    1
   129   110   108   ar
   130   114   113    1
   131    63    64    1
   132    63    62    1
   133   116   113    1
   134   107   105   ar
   135    59    60    1
   136    59    62    1
   137    59    58    1
   138    60    61    2
   139   173   172    2
   140   178   177    2
   141   186   185    2
   142   176   175    1
   143   176   177    1
   144   188   187    1
   145   188   189    1
   146   113   112    1
   147   174   171    1
   148   185   187   am
   149   185   184    1
   150   108   106   ar
   151   172   175   am
   152   172   171    1
   153   184   183    1
   154   112   102   am
   155   170   171    1
   156    57    54    1
   157   105   106   ar
   158   105   104    1
   159   189   190    2
   160    54    55    1
   161    54    53    1
   162    89    88    1
   163   102   101    1
   164   102   103    2
   165    55    56    2
   166   104   101    1
   167   101   100    1
   168    82    80    1
   169    94    93    2
   170    88    87    1
   171    88    90    1
   172    81    80    1
   173    80    79    1
   174    87    84    1
   175    79    76    1
   176   100    93   am
   177    93    92    1
   178    86    85    2
   179    75    76    1
   180    76    77    1
   181    84    85    1
   182    84    83    1
   183    85    91   am
   184    91    92    1
   185    92    95    1
   186    96    95    1
   187    96    97    1
   188    98    97   ar
   189    77    78    2
   190    97    99   ar
