@<TRIPOS>MOLECULE
tmp/2dwcB00.pdb
 139 131 0 0 0
SMALL
GASTEIGER

@<TRIPOS>ATOM
      1  N         22.1760   24.7450   19.0140 N.3   120  ARG120     -0.1245
      2  CA        23.5510   24.3510   19.2860 C.3   120  ARG120      0.1563
      3  C         24.3150   23.7700   18.1020 C.2   120  ARG120      0.2260
      4  O         25.5340   23.9440   18.0080 O.2   120  ARG120     -0.2867
      5  CB        23.6290   23.3930   20.4810 C.3   120  ARG120      0.0307
      6  CG        23.0970   23.9530   21.7880 C.3   120  ARG120      0.0489
      7  CD        23.5340   23.0420   22.8900 C.3   120  ARG120      0.2205
      8  NE        22.8420   23.3040   24.1360 N.pl3 120  ARG120     -0.0865
      9  CZ        23.2070   24.2210   25.0230 C.cat 120  ARG120      0.5346
     10  NH1       24.2700   24.9880   24.8060 N.pl3 120  ARG120      0.1354
     11  NH2       22.5160   24.3390   26.1510 N.pl3 120  ARG120      0.1354
     12  N         35.7080   22.7290   21.8880 N.3   136  SER136     -0.1217
     13  CA        35.7770   21.4090   22.5050 C.3   136  SER136      0.1889
     14  C         35.4920   20.3780   21.4140 C.2   136  SER136      0.2288
     15  O         34.7990   20.6720   20.4400 O.2   136  SER136     -0.2866
     16  CB        34.7100   21.2790   23.5870 C.3   136  SER136      0.2089
     17  OG        33.3910   21.4060   23.0490 O.3   136  SER136     -0.2183
     18  N         30.0390   16.2140   28.2840 N.3   159  HIS159     -0.1241
     19  CA        28.8450   17.0380   28.4660 C.3   159  HIS159      0.1621
     20  C         27.8340   16.7670   27.3550 C.2   159  HIS159      0.2264
     21  O         28.1900   16.8300   26.1830 O.2   159  HIS159     -0.2867
     22  CB        29.2220   18.5280   28.4060 C.3   159  HIS159      0.0745
     23  CG        30.1810   18.9480   29.4710 C.ar  159  HIS159      0.0817
     24  ND1       29.7690   19.4990   30.6660 N.ar  159  HIS159     -0.2268
     25  CD2       31.5310   18.8710   29.5370 C.ar  159  HIS159      0.1154
     26  CE1       30.8250   19.7450   31.4210 C.ar  159  HIS159      0.1986
     27  NE2       31.9060   19.3740   30.7600 N.ar  159  HIS159     -0.2212
     28  N         24.2280   18.0420   25.6790 N.3   161  LYS161     -0.1245
     29  CA        23.3340   19.2010   25.6820 C.3   161  LYS161      0.1561
     30  C         22.2810   19.0870   24.5980 C.2   161  LYS161      0.2260
     31  O         22.5750   18.6970   23.4630 O.2   161  LYS161     -0.2867
     32  CB        24.1390   20.4950   25.4620 C.3   161  LYS161      0.0271
     33  CG        25.3940   20.6320   26.3220 C.3   161  LYS161      0.0035
     34  CD        26.2920   21.7980   25.8510 C.3   161  LYS161      0.0206
     35  CE        27.6360   21.8320   26.6070 C.3   161  LYS161      0.1093
     36  NZ        28.4760   23.0060   26.1850 N.3   161  LYS161     -0.1314
     37  N         20.7720   19.7580   29.9310 N.3   167  SER167     -0.1217
     38  CA        22.1200   19.2080   29.7970 C.3   167  SER167      0.1889
     39  C         22.4230   18.1660   30.8680 C.2   167  SER167      0.2288
     40  O         21.6510   17.9880   31.8100 O.2   167  SER167     -0.2866
     41  CB        23.1510   20.3480   29.8910 C.3   167  SER167      0.2089
     42  OG        22.9530   21.2740   28.8320 O.3   167  SER167     -0.2183
     43  N         30.0480   16.7850   24.1150 N.3   188  GLU188     -0.1231
     44  CA        31.3490   17.4480   24.0800 C.3   188  GLU188      0.1699
     45  C         32.3520   16.9300   25.0940 C.2   188  GLU188      0.2592
     46  O         31.9780   16.5490   26.2010 O.2   188  GLU188     -0.2718
     47  CB        31.1920   18.9560   24.3750 C.3   188  GLU188      0.0402
     48  CG        30.1880   19.6850   23.5060 C.3   188  GLU188      0.1161
     49  CD        30.0750   21.1730   23.8870 C.2   188  GLU188      0.3649
     50  OE1       29.1020   21.8240   23.4710 O.co2 188  GLU188     -0.2457
     51  OE2       30.9690   21.6770   24.6000 O.co2 188  GLU188     -0.2457
     52  N         33.6340   17.0020   24.7390 N.am  189  GLU189     -0.1966
     53  CA        34.6660   16.6140   25.6960 C.3   189  GLU189      0.1733
     54  C         34.7020   17.6440   26.8370 C.2   189  GLU189      0.2616
     55  O         34.3710   18.8250   26.6410 O.2   189  GLU189     -0.2715
     56  CB        36.0400   16.5700   25.0330 C.3   189  GLU189      0.0429
     57  CG        36.4090   17.8390   24.3450 C.3   189  GLU189      0.1163
     58  CD        37.9020   18.0250   24.2160 C.2   189  GLU189      0.3649
     59  OE1       38.3080   18.7940   23.3360 O.co2 189  GLU189     -0.2457
     60  OE2       38.6720   17.4170   24.9940 O.co2 189  GLU189     -0.2457
     61  N         35.0970   17.2050   28.0290 N.am  190  HIS190     -0.1959
     62  CA        35.1800   18.1120   29.1630 C.3   190  HIS190      0.1787
     63  C         36.4550   18.9340   29.0870 C.2   190  HIS190      0.2620
     64  O         37.5510   18.3840   28.9730 O.2   190  HIS190     -0.2715
     65  CB        35.1610   17.3410   30.4830 C.3   190  HIS190      0.0785
     66  CG        35.3060   18.2180   31.6880 C.ar  190  HIS190      0.0821
     67  ND1       34.3270   19.1050   32.0830 N.ar  190  HIS190     -0.2267
     68  CD2       36.3230   18.3620   32.5710 C.ar  190  HIS190      0.1154
     69  CE1       34.7330   19.7570   33.1590 C.ar  190  HIS190      0.1986
     70  NE2       35.9410   19.3250   33.4750 N.ar  190  HIS190     -0.2212
     71  N         36.3210   20.2560   29.1320 N.am  191  ILE191     -0.1977
     72  CA        37.4890   21.1250   29.0920 C.3   191  ILE191      0.1596
     73  C         37.8500   21.5150   30.5210 C.2   191  ILE191      0.2287
     74  O         37.0060   22.0020   31.2810 O.2   191  ILE191     -0.2864
     75  CB        37.2260   22.4170   28.2760 C.3   191  ILE191      0.0276
     76  CG1       36.8680   22.0670   26.8250 C.3   191  ILE191      0.0022
     77  CG2       38.4740   23.2890   28.2730 C.3   191  ILE191      0.0022
     78  CD1       37.9390   21.2270   26.1260 C.3   191  ILE191      0.0001
     79  N         39.2750   24.0330   32.3380 N.3   193  PHE193     -0.1241
     80  CA        39.7390   25.4040   32.1750 C.3   193  PHE193      0.1605
     81  C         39.9050   26.1120   33.5170 C.2   193  PHE193      0.2264
     82  O         39.3670   25.6830   34.5410 O.2   193  PHE193     -0.2867
     83  CB        38.7680   26.1900   31.2690 C.3   193  PHE193      0.0534
     84  CG        37.3570   26.2060   31.7640 C.ar  193  PHE193     -0.0203
     85  CD1       36.3970   25.3830   31.1820 C.ar  193  PHE193     -0.0042
     86  CD2       36.9830   27.0200   32.8270 C.ar  193  PHE193     -0.0042
     87  CE1       35.0890   25.3690   31.6500 C.ar  193  PHE193     -0.0003
     88  CE2       35.6730   27.0190   33.3140 C.ar  193  PHE193     -0.0003
     89  CZ        34.7170   26.1900   32.7240 C.ar  193  PHE193     -0.0000
     90  N         36.1320   30.9870   32.6990 N.3   196  GLU196     -0.1245
     91  CA        35.3300   31.2010   31.4900 C.3   196  GLU196      0.1567
     92  C         35.2880   32.7110   31.3330 C.2   196  GLU196      0.2260
     93  O         35.2150   33.4400   32.3320 O.2   196  GLU196     -0.2867
     94  CB        33.8980   30.7300   31.6880 C.3   196  GLU196      0.0388
     95  CG        33.7200   29.3730   32.2690 C.3   196  GLU196      0.1160
     96  CD        32.2580   29.0060   32.3590 C.2   196  GLU196      0.3649
     97  OE1       31.8730   28.4130   33.3810 O.co2 196  GLU196     -0.2457
     98  OE2       31.4950   29.3080   31.4010 O.co2 196  GLU196     -0.2457
     99  N         29.6630   30.1370   36.1020 N.3   223  GLN223     -0.1245
    100  CA        28.3240   29.5930   35.8580 C.3   223  GLN223      0.1566
    101  C         27.9200   28.4740   36.8080 C.2   223  GLN223      0.2260
    102  O         28.4640   27.3690   36.7440 O.2   223  GLN223     -0.2867
    103  CB        28.2320   29.0610   34.4220 C.3   223  GLN223      0.0367
    104  CG        28.1150   30.1300   33.3490 C.3   223  GLN223      0.0905
    105  CD        26.6790   30.5780   33.1050 C.2   223  GLN223      0.2608
    106  OE1       26.4130   31.7670   32.9080 O.2   223  GLN223     -0.2717
    107  NE2       25.7520   29.6250   33.0970 N.am  223  GLN223     -0.0878
    108  N         23.7040   26.6160   35.0980 N.3   226  GLY226     -0.1225
    109  CA        23.1180   27.4090   34.0350 C.3   226  GLY226      0.1811
    110  C         22.8790   28.8830   34.3040 C.2   226  GLY226      0.2280
    111  O         22.4600   29.6040   33.3980 O.2   226  GLY226     -0.2866
    112  N         36.4980   29.4340   26.9520 N.3   267  PHE267     -0.1241
    113  CA        37.1320   28.7950   28.1100 C.3   267  PHE267      0.1605
    114  C         38.6310   29.1020   27.9770 C.2   267  PHE267      0.2264
    115  O         39.1800   29.0740   26.8720 O.2   267  PHE267     -0.2867
    116  CB        36.9400   27.2540   28.0820 C.3   267  PHE267      0.0534
    117  CG        35.4990   26.8110   28.0360 C.ar  267  PHE267     -0.0203
    118  CD1       34.5300   27.4470   28.8110 C.ar  267  PHE267     -0.0042
    119  CD2       35.1230   25.6980   27.2780 C.ar  267  PHE267     -0.0042
    120  CE1       33.2080   26.9850   28.8450 C.ar  267  PHE267     -0.0003
    121  CE2       33.8140   25.2200   27.3010 C.ar  267  PHE267     -0.0003
    122  CZ        32.8440   25.8630   28.0910 C.ar  267  PHE267     -0.0000
    123  N         33.1910   28.6580   23.1030 N.3   276  ASN276     -0.1225
    124  CA        32.1340   27.8170   23.6050 C.3   276  ASN276      0.1785
    125  C         30.8470   28.1280   22.8650 C.2   276  ASN276      0.2597
    126  O         30.3310   27.2930   22.1450 O.2   276  ASN276     -0.2718
    127  CB        31.9910   28.0220   25.1140 C.3   276  ASN276      0.1169
    128  CG        30.7760   27.3270   25.6900 C.2   276  ASN276      0.2627
    129  OD1       30.3220   26.3160   25.1680 O.2   276  ASN276     -0.2716
    130  ND2       30.2630   27.8600   26.8030 N.am  276  ASN276     -0.0877
    131  N         30.3250   29.3380   23.0360 N.am  277  GLU277     -0.1979
    132  CA        29.0990   29.6860   22.3210 C.3   277  GLU277      0.1602
    133  C         29.0490   31.2160   22.2330 C.2   277  GLU277      0.2287
    134  O         30.0020   31.8760   22.5810 O.2   277  GLU277     -0.2864
    135  CB        27.8940   29.1370   23.0780 C.3   277  GLU277      0.0415
    136  CG        27.7010   29.7600   24.4500 C.3   277  GLU277      0.1163
    137  CD        26.6000   29.0770   25.2390 C.2   277  GLU277      0.3649
    138  OE1       25.7340   28.4400   24.6080 O.co2 277  GLU277     -0.2457
    139  OE2       26.5900   29.1920   26.4820 O.co2 277  GLU277     -0.2457
@<TRIPOS>BOND
     1     4     3    2
     2     3     2    1
     3     1     2    1
     4     2     5    1
     5    15    14    2
     6     5     6    1
     7    14    13    1
     8     6     7    1
     9    12    13    1
    10   126   125    2
    11   133   132    1
    12   133   134    2
    13   132   131    1
    14   132   135    1
    15    13    16    1
    16   125   131   am
    17   125   124    1
    18     7     8    1
    19    17    16    1
    20   135   136    1
    21   123   124    1
    22    59    58   ar
    23    31    30    2
    24    50    49   ar
    25    48    49    1
    26    48    47    1
    27   124   127    1
    28    49    51   ar
    29    44    43    1
    30    44    47    1
    31    44    45    1
    32     8     9    2
    33    58    57    1
    34    58    60   ar
    35    57    56    1
    36   136   137    1
    37    30    29    1
    38   138   137   ar
    39    52    45   am
    40    52    53    1
    41    10     9    1
    42     9    11    1
    43    56    53    1
    44    45    46    2
    45   127   128    1
    46   129   128    2
    47   137   139   ar
    48    32    29    1
    49    32    33    1
    50    28    29    1
    51   128   130   am
    52    53    54    1
    53    34    33    1
    54    34    35    1
    55    78    76    1
    56    21    20    2
    57    36    35    1
    58    55    54    2
    59    76    75    1
    60    54    61   am
    61   115   114    2
    62   112   113    1
    63   119   121   ar
    64   119   117   ar
    65   121   122   ar
    66    20    19    1
    67   114   113    1
    68    61    62    1
    69   117   116    1
    70   117   118   ar
    71   116   113    1
    72   122   120   ar
    73    77    75    1
    74    75    72    1
    75    18    19    1
    76    22    19    1
    77    22    23    1
    78   118   120   ar
    79    42    41    1
    80    64    63    2
    81    63    71   am
    82    63    62    1
    83    72    71    1
    84    72    73    1
    85    62    65    1
    86    23    25   ar
    87    23    24   ar
    88    25    27   ar
    89    38    41    1
    90    38    37    1
    91    38    39    1
    92    65    66    1
    93    73    74    2
    94    24    26   ar
    95    27    26   ar
    96    39    40    2
    97    85    87   ar
    98    85    84   ar
    99    83    84    1
   100    83    80    1
   101    92    91    1
   102    92    93    2
   103    98    96   ar
   104    91    94    1
   105    91    90    1
   106    87    89   ar
   107    94    95    1
   108    66    67   ar
   109    66    68   ar
   110    84    86   ar
   111    67    69   ar
   112    80    79    1
   113    80    81    1
   114    95    96    1
   115    96    97   ar
   116    68    70   ar
   117    89    88   ar
   118    86    88   ar
   119   106   105    2
   120   107   105   am
   121   105   104    1
   122    69    70   ar
   123   104   103    1
   124   111   110    2
   125    81    82    2
   126   109   110    1
   127   109   108    1
   128   103   100    1
   129   100    99    1
   130   100   101    1
   131   102   101    2
