@<TRIPOS>MOLECULE
tmp/2dwjA00.pdb
 116 115 0 0 0
SMALL
GASTEIGER

@<TRIPOS>ATOM
      1  N         18.2640   20.5710    1.2630 N.3    79  HIS79      -0.1241
      2  CA        19.2990   21.0630    2.1860 C.3    79  HIS79       0.1621
      3  C         20.6910   20.5760    1.7380 C.2    79  HIS79       0.2264
      4  O         21.4800   20.0870    2.5500 O.2    79  HIS79      -0.2867
      5  CB        19.0380   20.5790    3.6190 C.3    79  HIS79       0.0745
      6  CG        17.7730   21.1060    4.2280 C.ar   79  HIS79       0.0817
      7  ND1       16.7990   20.2780    4.7430 N.ar   79  HIS79      -0.2268
      8  CD2       17.3330   22.3720    4.4280 C.ar   79  HIS79       0.1154
      9  CE1       15.8130   21.0100    5.2320 C.ar   79  HIS79       0.1986
     10  NE2       16.1120   22.2840    5.0530 N.ar   79  HIS79      -0.2212
     11  N         20.1860   19.2500    9.2670 N.3    88  PRO88      -0.2102
     12  CA        19.0240   18.7500   10.1170 C.3    88  PRO88       0.1504
     13  C         18.6390   17.3310    9.9550 C.2    88  PRO88       0.2576
     14  O         18.8320   16.7740    8.8830 O.2    88  PRO88      -0.2718
     15  CB        17.9070   19.7430    9.8210 C.3    88  PRO88       0.0282
     16  CG        18.6810   21.0220    9.7130 C.3    88  PRO88       0.0208
     17  CD        20.1010   20.7100    9.3070 C.3    88  PRO88       0.0893
     18  N         18.0990   16.6750   10.9500 N.am   89  THR89      -0.1939
     19  CA        17.7280   15.2910   10.7270 C.3    89  THR89       0.2028
     20  C         16.2650   15.2330   10.2390 C.2    89  THR89       0.2642
     21  O         15.4020   15.9900   10.6780 O.2    89  THR89      -0.2714
     22  CB        18.0530   14.4510   11.9580 C.3    89  THR89       0.1808
     23  OG1       17.2270   14.8810   13.0580 O.3    89  THR89      -0.2208
     24  CG2       19.5110   14.5940   12.3200 C.3    89  THR89       0.0379
     25  N         16.0690   14.2790    9.3200 N.am   90  GLU90      -0.1963
     26  CA        14.8110   13.9930    8.5990 C.3    90  GLU90       0.1733
     27  C         13.9010   12.9740    9.2650 C.2    90  GLU90       0.2616
     28  O         12.6830   13.1100    9.2030 O.2    90  GLU90      -0.2715
     29  CB        15.1270   13.5840    7.1540 C.3    90  GLU90       0.0429
     30  CG        15.8180   14.6540    6.3580 C.3    90  GLU90       0.1163
     31  CD        15.4330   14.6030    4.8910 C.2    90  GLU90       0.3649
     32  OE1       14.2890   15.0040    4.5730 O.co2  90  GLU90      -0.2457
     33  OE2       16.2580   14.1610    4.0610 O.co2  90  GLU90      -0.2457
     34  N         14.4480   11.9340    9.9070 N.am   91  GLY91      -0.1955
     35  CA        13.6040   10.9400   10.5030 C.3    91  GLY91       0.1869
     36  C         13.2930    9.8640    9.4740 C.2    91  GLY91       0.2309
     37  O         13.2460   10.1600    8.2740 O.2    91  GLY91      -0.2863
     38  N          6.5510    8.8220   10.9490 N.3   250  VAL250     -0.1231
     39  CA         7.9490    9.0970   10.6700 C.3   250  VAL250      0.1692
     40  C          8.5920    9.1250   12.0480 C.2   250  VAL250      0.2592
     41  O          8.0840    9.7330   12.9810 O.2   250  VAL250     -0.2718
     42  CB         8.1860   10.4340    9.8660 C.3   250  VAL250      0.0266
     43  CG1        6.8530   11.0190    9.3920 C.3   250  VAL250      0.0020
     44  CG2        8.9960   11.4290   10.6870 C.3   250  VAL250      0.0020
     45  N          9.6980    8.4070   12.1620 N.am  251  ALA251     -0.1966
     46  CA        10.4150    8.2630   13.4130 C.3   251  ALA251      0.1713
     47  C         11.6430    9.1550   13.5760 C.2   251  ALA251      0.2458
     48  O         12.3380    9.4720   12.6190 O.2   251  ALA251     -0.2730
     49  CB        10.8180    6.7910   13.5830 C.3   251  ALA251      0.0333
     50  N         11.9110    9.5930   14.8090 N.am  252  PRO252     -0.2716
     51  CA        13.0920   10.4310   15.0030 C.3   252  PRO252      0.1536
     52  C         14.3130    9.4960   14.8750 C.2   252  PRO252      0.2598
     53  O         14.2930    8.3340   15.3190 O.2   252  PRO252     -0.2715
     54  CB        12.9010   10.9730   16.4150 C.3   252  PRO252      0.0310
     55  CG        12.1760    9.8690   17.1100 C.3   252  PRO252      0.0237
     56  CD        11.1510    9.4380   16.0630 C.3   252  PRO252      0.0939
     57  N         15.3690    9.9920   14.2490 N.am  253  ASN253     -0.1973
     58  CA        16.5590    9.1840   14.0500 C.3   253  ASN253      0.1688
     59  C         17.1850    8.6600   15.3260 C.2   253  ASN253      0.2292
     60  O         16.9640    9.1920   16.4230 O.2   253  ASN253     -0.2864
     61  CB        17.6230    9.9750   13.3040 C.3   253  ASN253      0.1181
     62  CG        17.2510   10.2390   11.8640 C.2   253  ASN253      0.2629
     63  OD1       16.2540    9.7270   11.3620 O.2   253  ASN253     -0.2716
     64  ND2       18.0610   11.0360   11.1860 N.am  253  ASN253     -0.0877
     65  N         22.9790   18.3920   17.1700 N.3   310  LEU310     -0.1231
     66  CA        21.5600   18.6600   17.3210 C.3   310  LEU310      0.1693
     67  C         21.3190   20.1510   17.4200 C.2   310  LEU310      0.2592
     68  O         22.0380   20.8600   18.1250 O.2   310  LEU310     -0.2718
     69  CB        21.0350   17.9330   18.5630 C.3   310  LEU310      0.0284
     70  CG        21.4020   16.4400   18.5330 C.3   310  LEU310      0.0019
     71  CD1       20.8990   15.7270   19.7770 C.3   310  LEU310      0.0001
     72  CD2       20.8180   15.8250   17.2800 C.3   310  LEU310      0.0001
     73  N         20.3090   20.6230   16.7020 N.am  311  GLY311     -0.1957
     74  CA        19.9940   22.0350   16.7240 C.3   311  GLY311      0.1869
     75  C         19.0960   22.4610   17.8730 C.2   311  GLY311      0.2309
     76  O         18.0490   21.8570   18.1300 O.2   311  GLY311     -0.2863
     77  N         18.4380   20.3210   22.2890 N.3   314  PRO314     -0.2116
     78  CA        17.2020   19.6790   22.7260 C.3   314  PRO314      0.1372
     79  C         17.2680   18.7100   23.8980 C.2   314  PRO314      0.2244
     80  O         18.2730   18.0270   24.1160 O.2   314  PRO314     -0.2868
     81  CB        16.7250   19.0010   21.4460 C.3   314  PRO314      0.0268
     82  CG        18.0170   18.4700   20.9110 C.3   314  PRO314      0.0207
     83  CD        18.9630   19.6530   21.0840 C.3   314  PRO314      0.0892
     84  N         12.0810   17.0630   23.4890 N.3   318  GLU318     -0.1231
     85  CA        12.0850   17.9040   22.2980 C.3   318  GLU318      0.1699
     86  C         12.6870   17.1540   21.1310 C.2   318  GLU318      0.2592
     87  O         12.2570   17.3150   19.9890 O.2   318  GLU318     -0.2718
     88  CB        12.9020   19.1680   22.5320 C.3   318  GLU318      0.0402
     89  CG        12.3460   20.0850   23.5940 C.3   318  GLU318      0.1161
     90  CD        13.2740   21.2380   23.8500 C.2   318  GLU318      0.3649
     91  OE1       14.4440   20.9850   24.2120 O.co2 318  GLU318     -0.2457
     92  OE2       12.8400   22.3930   23.6800 O.co2 318  GLU318     -0.2457
     93  N         13.6760   16.3550   21.4470 N.am  319  TYR319     -0.1962
     94  CA        14.3170   15.6260   20.3780 C.3   319  TYR319      0.1771
     95  C         13.3940   14.5670   19.8100 C.2   319  TYR319      0.2619
     96  O         13.4930   14.1990   18.6340 O.2   319  TYR319     -0.2715
     97  CB        15.6210   14.9030   20.8520 C.3   319  TYR319      0.0574
     98  CG        16.1840   14.0460   19.7240 C.ar  319  TYR319     -0.0198
     99  CD1       16.9360   14.6460   18.7240 C.ar  319  TYR319     -0.0009
    100  CD2       15.9600   12.6810   19.6510 C.ar  319  TYR319     -0.0009
    101  CE1       17.4400   13.9140   17.6780 C.ar  319  TYR319      0.0417
    102  CE2       16.4300   11.9400   18.5710 C.ar  319  TYR319      0.0417
    103  CZ        17.1640   12.5620   17.5870 C.ar  319  TYR319      0.1957
    104  OH        17.6150   11.8190   16.5200 O.3   319  TYR319     -0.2866
    105  N         12.4690   14.0700   20.6540 N.am  320  LEU320     -0.1963
    106  CA        11.6800   12.9080   20.1990 C.3   320  LEU320      0.1728
    107  C         10.4250   13.5470   19.6020 C.2   320  LEU320      0.2616
    108  O          9.8240   12.9820   18.6850 O.2   320  LEU320     -0.2715
    109  CB        11.3070   11.9400   21.3200 C.3   320  LEU320      0.0311
    110  CG        12.4310   11.0470   21.8600 C.3   320  LEU320      0.0022
    111  CD1       11.8640   10.1150   22.9120 C.3   320  LEU320      0.0001
    112  CD2       13.0630   10.2470   20.7310 C.3   320  LEU320      0.0001
    113  N         10.0460   14.7190   20.1160 N.am  321  GLY321     -0.1955
    114  CA         8.8600   15.4030   19.6240 C.3   321  GLY321      0.1869
    115  C          7.6230   15.0490   20.4350 C.2   321  GLY321      0.2309
    116  O          7.4760   13.9060   20.8780 O.2   321  GLY321     -0.2863
@<TRIPOS>BOND
     1     1     2    1
     2     3     2    1
     3     3     4    2
     4     2     5    1
     5     5     6    1
     6    33    31   ar
     7     6     8   ar
     8     6     7   ar
     9     8    10   ar
    10    32    31   ar
    11     7     9   ar
    12    31    30    1
    13    10     9   ar
    14    30    29    1
    15    29    26    1
    16    37    36    2
    17    26    27    1
    18    26    25    1
    19    14    13    2
    20    28    27    2
    21    27    34   am
    22    11    17    1
    23    11    12    1
    24    17    16    1
    25    25    20   am
    26    43    42    1
    27    36    35    1
    28    16    15    1
    29    15    12    1
    30    42    39    1
    31    42    44    1
    32    34    35    1
    33    13    12    1
    34    13    18   am
    35    20    21    2
    36    20    19    1
    37    39    38    1
    38    39    40    1
    39    19    18    1
    40    19    22    1
    41    64    62   am
    42    63    62    2
    43    62    61    1
    44    22    24    1
    45    22    23    1
    46    40    45   am
    47    40    41    2
    48    45    46    1
    49    48    47    2
    50    61    58    1
    51    46    47    1
    52    46    49    1
    53    47    50   am
    54    58    57    1
    55    58    59    1
    56    57    52   am
    57    50    51    1
    58    50    56    1
    59    52    51    1
    60    52    53    2
    61    51    54    1
    62    59    60    2
    63    56    55    1
    64    54    55    1
    65   104   103    1
    66    73    74    1
    67    73    67   am
    68    74    75    1
    69    65    66    1
    70    72    70    1
    71    66    67    1
    72    66    69    1
    73    67    68    2
    74   103   101   ar
    75   103   102   ar
    76   101    99   ar
    77    75    76    2
    78    70    69    1
    79    70    71    1
    80   102   100   ar
    81    96    95    2
    82   108   107    2
    83    99    98   ar
    84   107   113   am
    85   107   106    1
    86   114   113    1
    87   114   115    1
    88   100    98   ar
    89    98    97    1
    90    95    94    1
    91    95   105   am
    92    87    86    2
    93   106   105    1
    94   106   109    1
    95    94    97    1
    96    94    93    1
    97   115   116    2
    98   112   110    1
    99    82    83    1
   100    82    81    1
   101    83    77    1
   102    86    93   am
   103    86    85    1
   104   109   110    1
   105    81    78    1
   106   110   111    1
   107    77    78    1
   108    85    88    1
   109    85    84    1
   110    88    89    1
   111    78    79    1
   112    89    90    1
   113    92    90   ar
   114    90    91   ar
   115    79    80    2
