@<TRIPOS>MOLECULE
tmp/2dwlF00.pdb
 88 87 0 0 0
SMALL
GASTEIGER

@<TRIPOS>ATOM
      1  N         36.6430    8.8940   13.8170 N.3     9  VAL9       -0.1231
      2  CA        35.3600    9.2440   14.4340 C.3     9  VAL9        0.1678
      3  C         34.3150    8.1190   14.3350 C.2     9  VAL9        0.2434
      4  O         34.3400    7.3260   13.3890 O.2     9  VAL9       -0.2733
      5  CB        34.7940   10.5500   13.7930 C.3     9  VAL9        0.0265
      6  CG1       34.9690   10.4960   12.2910 C.3     9  VAL9        0.0020
      7  CG2       33.3290   10.7300   14.1440 C.3     9  VAL9        0.0020
      8  N         33.4060    8.0240   15.3330 N.am   10  PRO10      -0.2729
      9  CA        32.3370    7.0150   15.4020 C.3    10  PRO10       0.1401
     10  C         31.4360    6.8910   14.1710 C.2    10  PRO10       0.2269
     11  O         31.3510    7.7990   13.3450 O.2    10  PRO10      -0.2865
     12  CB        31.5750    7.4200   16.6560 C.3    10  PRO10       0.0296
     13  CG        32.6850    7.8640   17.5580 C.3    10  PRO10       0.0237
     14  CD        33.5240    8.7320   16.6260 C.3    10  PRO10       0.0939
     15  N         27.8330   13.0790   12.0130 N.3    14  THR14      -0.1203
     16  CA        26.7320   13.9380   11.6580 C.3    14  THR14       0.1994
     17  C         26.9650   15.3150   12.2820 C.2    14  THR14       0.2618
     18  O         27.7380   15.4570   13.2370 O.2    14  THR14      -0.2717
     19  CB        25.4050   13.2680   12.1070 C.3    14  THR14       0.1784
     20  OG1       24.3190   13.7910   11.3380 O.3    14  THR14      -0.2211
     21  CG2       25.1610   13.4790   13.5940 C.3    14  THR14       0.0376
     22  N         26.3250   16.3280   11.7050 N.am   15  PHE15      -0.1961
     23  CA        26.4460   17.6920   12.1980 C.3    15  PHE15       0.1771
     24  C         25.2120   18.0880   13.0130 C.2    15  PHE15       0.2620
     25  O         24.0830   18.0320   12.5160 O.2    15  PHE15      -0.2715
     26  CB        26.6260   18.6670   11.0350 C.3    15  PHE15       0.0574
     27  CG        27.7610   18.3210   10.1180 C.ar   15  PHE15      -0.0200
     28  CD1       27.5870   17.3970    9.0880 C.ar   15  PHE15      -0.0042
     29  CD2       28.9990   18.9370   10.2680 C.ar   15  PHE15      -0.0042
     30  CE1       28.6310   17.0920    8.2180 C.ar   15  PHE15      -0.0003
     31  CE2       30.0520   18.6410    9.4100 C.ar   15  PHE15      -0.0003
     32  CZ        29.8680   17.7200    8.3800 C.ar   15  PHE15      -0.0000
     33  N         25.4520   18.4970   14.2600 N.am   16  ASP16      -0.1957
     34  CA        24.3960   18.8760   15.1790 C.3    16  ASP16       0.1840
     35  C         23.9250   20.3000   14.9510 C.2    16  ASP16       0.2622
     36  O         24.7250   21.2190   14.7760 O.2    16  ASP16      -0.2715
     37  CB        24.8770   18.7100   16.6160 C.3    16  ASP16       0.1450
     38  CG        25.4250   17.3220   16.8920 C.2    16  ASP16       0.3671
     39  OD1       25.9490   17.1040   18.0060 O.co2  16  ASP16      -0.2456
     40  OD2       25.3380   16.4450   16.0060 O.co2  16  ASP16      -0.2456
     41  N         22.6060   20.4540   14.9490 N.am   17  TYR17      -0.1974
     42  CA        21.9280   21.7260   14.7500 C.3    17  TYR17       0.1639
     43  C         20.8260   21.8070   15.7870 C.2    17  TYR17       0.2290
     44  O         20.1590   20.8050   16.0500 O.2    17  TYR17      -0.2864
     45  CB        21.2840   21.7740   13.3730 C.3    17  TYR17       0.0560
     46  CG        22.2490   21.9630   12.2400 C.ar   17  TYR17      -0.0198
     47  CD1       22.5790   20.9130   11.3940 C.ar   17  TYR17      -0.0009
     48  CD2       22.8010   23.2090   11.9860 C.ar   17  TYR17      -0.0009
     49  CE1       23.4220   21.1070   10.3250 C.ar   17  TYR17       0.0417
     50  CE2       23.6450   23.4070   10.9230 C.ar   17  TYR17       0.0417
     51  CZ        23.9450   22.3610   10.1000 C.ar   17  TYR17       0.1957
     52  OH        24.7430   22.5940    9.0180 O.3    17  TYR17      -0.2866
     53  N         25.9500   26.5020    7.0290 N.3    35  PHE35      -0.1241
     54  CA        27.2070   25.7930    6.8050 C.3    35  PHE35       0.1605
     55  C         28.2050   26.8640    6.3900 C.2    35  PHE35       0.2264
     56  O         27.9960   27.5710    5.4020 O.2    35  PHE35      -0.2867
     57  CB        27.0870   24.7340    5.7010 C.3    35  PHE35       0.0534
     58  CG        28.2190   23.7330    5.6960 C.ar   35  PHE35      -0.0203
     59  CD1       28.3020   22.7540    6.6870 C.ar   35  PHE35      -0.0042
     60  CD2       29.2280   23.7910    4.7240 C.ar   35  PHE35      -0.0042
     61  CE1       29.3670   21.8490    6.7150 C.ar   35  PHE35      -0.0003
     62  CE2       30.3060   22.8800    4.7450 C.ar   35  PHE35      -0.0003
     63  CZ        30.3710   21.9130    5.7430 C.ar   35  PHE35      -0.0000
     64  N         27.6680   16.8740   21.4120 N.3    53  GLU53      -0.1231
     65  CA        29.0490   16.9340   21.8720 C.3    53  GLU53       0.1699
     66  C         29.5300   18.3560   22.1860 C.2    53  GLU53       0.2592
     67  O         30.6740   18.5510   22.6070 O.2    53  GLU53      -0.2718
     68  CB        29.9780   16.3020   20.8280 C.3    53  GLU53       0.0402
     69  CG        31.3540   15.8480   21.3490 C.3    53  GLU53       0.1161
     70  CD        31.3030   14.5590   22.1910 C.2    53  GLU53       0.3649
     71  OE1       30.9380   14.6400   23.3850 O.co2  53  GLU53      -0.2457
     72  OE2       31.6240   13.4690   21.6570 O.co2  53  GLU53      -0.2457
     73  N         28.6620   19.3450   21.9760 N.am   54  LEU54      -0.1980
     74  CA        28.9720   20.7560   22.2390 C.3    54  LEU54       0.1596
     75  C         27.7790   21.3360   22.9910 C.2    54  LEU54       0.2287
     76  O         26.6530   20.8600   22.8310 O.2    54  LEU54      -0.2864
     77  CB        29.1360   21.5210   20.9340 C.3    54  LEU54       0.0297
     78  CG        30.0630   20.9800   19.8400 C.3    54  LEU54       0.0022
     79  CD1       29.7520   21.6930   18.5320 C.3    54  LEU54       0.0001
     80  CD2       31.5270   21.1770   20.2300 C.3    54  LEU54       0.0001
     81  N         25.6740   25.7550   19.1510 N.3    59  LEU59      -0.1245
     82  CA        25.2450   25.1450   17.8970 C.3    59  LEU59       0.1561
     83  C         24.3490   26.1030   17.1530 C.2    59  LEU59       0.2260
     84  O         23.6300   26.8760   17.7650 O.2    59  LEU59      -0.2867
     85  CB        24.4540   23.8520   18.1670 C.3    59  LEU59       0.0270
     86  CG        25.1350   22.6190   18.7640 C.3    59  LEU59       0.0019
     87  CD1       24.0740   21.6100   19.1840 C.3    59  LEU59       0.0001
     88  CD2       26.1120   21.9930   17.7600 C.3    59  LEU59       0.0001
@<TRIPOS>BOND
     1    60    62   ar
     2    60    58   ar
     3    62    63   ar
     4    56    55    2
     5    58    57    1
     6    58    59   ar
     7    57    54    1
     8    63    61   ar
     9    55    54    1
    10    59    61   ar
    11    54    53    1
    12    30    32   ar
    13    30    28   ar
    14    32    31   ar
    15    52    51    1
    16    28    27   ar
    17    31    29   ar
    18    51    49   ar
    19    51    50   ar
    20    27    29   ar
    21    27    26    1
    22    49    47   ar
    23    50    48   ar
    24    26    23    1
    25    20    19    1
    26    47    46   ar
    27    16    15    1
    28    16    19    1
    29    16    17    1
    30    22    23    1
    31    22    17   am
    32    48    46   ar
    33    19    21    1
    34    23    24    1
    35    46    45    1
    36    17    18    2
    37     6     5    1
    38    25    24    2
    39    24    33   am
    40    11    10    2
    41    45    42    1
    42     4     3    2
    43     5     7    1
    44     5     2    1
    45     1     2    1
    46    10     9    1
    47    33    34    1
    48     3     2    1
    49     3     8   am
    50    42    41    1
    51    42    43    1
    52    36    35    2
    53    41    35   am
    54    35    34    1
    55    34    37    1
    56     8     9    1
    57     8    14    1
    58     9    12    1
    59    43    44    2
    60    40    38   ar
    61    37    38    1
    62    14    13    1
    63    12    13    1
    64    38    39   ar
    65    83    84    2
    66    83    82    1
    67    88    86    1
    68    82    85    1
    69    82    81    1
    70    85    86    1
    71    79    78    1
    72    86    87    1
    73    78    80    1
    74    78    77    1
    75    68    69    1
    76    68    65    1
    77    77    74    1
    78    69    70    1
    79    64    65    1
    80    72    70   ar
    81    65    66    1
    82    73    66   am
    83    73    74    1
    84    66    67    2
    85    70    71   ar
    86    74    75    1
    87    76    75    2
