@<TRIPOS>MOLECULE
tmp/2dwmF00.pdb
 94 94 0 0 0
SMALL
GASTEIGER

@<TRIPOS>ATOM
      1  N         37.7480   16.1990    6.8190 N.3    15  THR15      -0.1203
      2  CA        38.7640   16.2680    7.8620 C.3    15  THR15       0.1994
      3  C         38.5320   17.3650    8.9120 C.2    15  THR15       0.2618
      4  O         37.6330   18.1950    8.7810 O.2    15  THR15      -0.2717
      5  CB        40.1500   16.4800    7.2230 C.3    15  THR15       0.1784
      6  OG1       41.1520   16.5200    8.2450 O.3    15  THR15      -0.2211
      7  CG2       40.1690   17.7770    6.4210 C.3    15  THR15       0.0376
      8  N         39.3670   17.3480    9.9480 N.am   16  PHE16      -0.1961
      9  CA        39.3160   18.3000   11.0570 C.3    16  PHE16       0.1771
     10  C         40.5890   19.1590   11.1480 C.2    16  PHE16       0.2620
     11  O         41.6880   18.6460   11.3680 O.2    16  PHE16      -0.2715
     12  CB        39.0840   17.5410   12.3660 C.3    16  PHE16       0.0574
     13  CG        37.8180   16.7420   12.3620 C.ar   16  PHE16      -0.0200
     14  CD1       37.7010   15.6200   11.5550 C.ar   16  PHE16      -0.0042
     15  CD2       36.7040   17.1740   13.0710 C.ar   16  PHE16      -0.0042
     16  CE1       36.4940   14.9440   11.4440 C.ar   16  PHE16      -0.0003
     17  CE2       35.4890   16.5080   12.9680 C.ar   16  PHE16      -0.0003
     18  CZ        35.3820   15.3900   12.1490 C.ar   16  PHE16      -0.0000
     19  N         40.4190   20.4670   10.9610 N.am   17  ASP17      -0.1957
     20  CA        41.5040   21.4450   10.9840 C.3    17  ASP17       0.1840
     21  C         41.9950   21.7990   12.3920 C.2    17  ASP17       0.2622
     22  O         41.2040   22.0070   13.3180 O.2    17  ASP17      -0.2715
     23  CB        41.0600   22.7220   10.2360 C.3    17  ASP17       0.1450
     24  CG        40.6100   22.4400    8.8030 C.2    17  ASP17       0.3671
     25  OD1       40.4500   21.2500    8.4540 O.co2  17  ASP17      -0.2456
     26  OD2       40.4040   23.3950    8.0170 O.co2  17  ASP17      -0.2456
     27  N         43.3160   21.8260   12.5330 N.am   18  TYR18      -0.1974
     28  CA        43.9880   22.1710   13.7790 C.3    18  TYR18       0.1639
     29  C         45.1020   23.1420   13.4120 C.2    18  TYR18       0.2290
     30  O         45.6900   23.0680   12.3280 O.2    18  TYR18      -0.2864
     31  CB        44.6070   20.9420   14.4830 C.3    18  TYR18       0.0560
     32  CG        43.6030   19.9990   15.1190 C.ar   18  TYR18      -0.0198
     33  CD1       42.8310   19.1440   14.3290 C.ar   18  TYR18      -0.0009
     34  CD2       43.3660   20.0230   16.4920 C.ar   18  TYR18      -0.0009
     35  CE1       41.8480   18.3500   14.8780 C.ar   18  TYR18       0.0417
     36  CE2       42.3790   19.2350   17.0610 C.ar   18  TYR18       0.0417
     37  CZ        41.6210   18.4000   16.2450 C.ar   18  TYR18       0.1957
     38  OH        40.6210   17.6170   16.7960 O.3    18  TYR18      -0.2866
     39  N         43.3010   18.1620   20.3410 N.3    35  PRO35      -0.2102
     40  CA        42.1840   18.2530   21.2720 C.3    35  PRO35       0.1504
     41  C         40.9830   17.7820   20.4570 C.2    35  PRO35       0.2576
     42  O         41.0770   17.6670   19.2470 O.2    35  PRO35      -0.2718
     43  CB        42.1230   19.7440   21.5860 C.3    35  PRO35       0.0282
     44  CG        43.5500   20.2120   21.3230 C.3    35  PRO35       0.0208
     45  CD        43.8570   19.4920   20.0580 C.3    35  PRO35       0.0893
     46  N         39.8770   17.4940   21.1280 N.am   36  PHE36      -0.1963
     47  CA        38.6310   17.0530   20.5020 C.3    36  PHE36       0.1771
     48  C         37.6800   17.4070   21.6390 C.2    36  PHE36       0.2620
     49  O         38.1460   17.6350   22.7420 O.2    36  PHE36      -0.2715
     50  CB        38.6740   15.5370   20.2560 C.3    36  PHE36       0.0574
     51  CG        37.6430   15.0270   19.2620 C.ar   36  PHE36      -0.0200
     52  CD1       37.6420   15.4580   17.9310 C.ar   36  PHE36      -0.0042
     53  CD2       36.6750   14.1040   19.6640 C.ar   36  PHE36      -0.0042
     54  CE1       36.6910   14.9740   17.0150 C.ar   36  PHE36      -0.0003
     55  CE2       35.7240   13.6150   18.7660 C.ar   36  PHE36      -0.0003
     56  CZ        35.7290   14.0530   17.4370 C.ar   36  PHE36      -0.0000
     57  N         36.3780   17.4870   21.4080 N.am   37  GLY37      -0.1954
     58  CA        35.4880   17.8410   22.5050 C.3    37  GLY37       0.1869
     59  C         35.9890   18.9170   23.4730 C.2    37  GLY37       0.2309
     60  O         37.0860   19.4670   23.3370 O.2    37  GLY37      -0.2863
     61  N         37.3420   27.9580    8.2180 N.3    55  LEU55      -0.1245
     62  CA        36.8950   28.4500    9.5140 C.3    55  LEU55       0.1561
     63  C         37.9510   29.4250   10.0580 C.2    55  LEU55       0.2260
     64  O         39.1380   29.3120    9.7470 O.2    55  LEU55      -0.2867
     65  CB        36.6960   27.2880   10.4770 C.3    55  LEU55       0.0270
     66  CG        35.7730   26.2000    9.9340 C.3    55  LEU55       0.0019
     67  CD1       36.5320   25.3060    8.9580 C.3    55  LEU55       0.0001
     68  CD2       35.2370   25.3860   11.0850 C.3    55  LEU55       0.0001
     69  N         39.6180   30.7370   15.6560 N.3    59  GLU59      -0.1231
     70  CA        38.6230   29.8390   16.2390 C.3    59  GLU59       0.1699
     71  C         38.9900   28.3440   16.3150 C.2    59  GLU59       0.2592
     72  O         38.1980   27.5380   16.8070 O.2    59  GLU59      -0.2718
     73  CB        37.2960   30.0040   15.4720 C.3    59  GLU59       0.0402
     74  CG        36.1580   29.0850   15.9180 C.3    59  GLU59       0.1161
     75  CD        34.9120   29.2360   15.0660 C.2    59  GLU59       0.3649
     76  OE1       33.9470   28.4660   15.2570 O.co2  59  GLU59      -0.2457
     77  OE2       34.8990   30.1290   14.2000 O.co2  59  GLU59      -0.2457
     78  N         40.1750   27.9560   15.8540 N.am   60  LEU60      -0.1966
     79  CA        40.5280   26.5390   15.9000 C.3    60  LEU60       0.1728
     80  C         41.5790   26.1590   16.9120 C.2    60  LEU60       0.2616
     81  O         42.6200   26.8050   17.0350 O.2    60  LEU60      -0.2715
     82  CB        40.9230   26.0220   14.5070 C.3    60  LEU60       0.0311
     83  CG        42.0080   26.6900   13.6650 C.3    60  LEU60       0.0022
     84  CD1       41.6580   26.5260   12.1910 C.3    60  LEU60       0.0001
     85  CD2       42.0900   28.1480   13.9900 C.3    60  LEU60       0.0001
     86  N         41.2820   25.0950   17.6510 N.am   61  LYS61      -0.1977
     87  CA        42.1990   24.5980   18.6680 C.3    61  LYS61       0.1596
     88  C         43.5350   24.3370   17.9840 C.2    61  LYS61       0.2287
     89  O         43.6200   24.2910   16.7560 O.2    61  LYS61      -0.2864
     90  CB        41.6760   23.3010   19.3100 C.3    61  LYS61       0.0298
     91  CG        40.4280   23.4350   20.1930 C.3    61  LYS61       0.0038
     92  CD        39.1520   23.3740   19.3710 C.3    61  LYS61       0.0206
     93  CE        37.9040   23.2580   20.2340 C.3    61  LYS61       0.1093
     94  NZ        36.6850   23.2590   19.3710 N.3    61  LYS61      -0.1314
@<TRIPOS>BOND
     1     7     5    1
     2     1     2    1
     3     5     2    1
     4     5     6    1
     5     2     3    1
     6    26    24   ar
     7    61    62    1
     8    25    24   ar
     9     4     3    2
    10    24    23    1
    11     3     8   am
    12    67    66    1
    13    62    63    1
    14    62    65    1
    15    64    63    2
    16    66    65    1
    17    66    68    1
    18     8     9    1
    19    23    20    1
    20    19    20    1
    21    19    10   am
    22    20    21    1
    23     9    10    1
    24     9    12    1
    25    10    11    2
    26    16    14   ar
    27    16    18   ar
    28    14    13   ar
    29    18    17   ar
    30    84    83    1
    31    30    29    2
    32    13    12    1
    33    13    15   ar
    34    21    27   am
    35    21    22    2
    36    27    28    1
    37    17    15   ar
    38    29    28    1
    39    83    85    1
    40    83    82    1
    41    28    31    1
    42    77    75   ar
    43    33    35   ar
    44    33    32   ar
    45    31    32    1
    46    82    79    1
    47    35    37   ar
    48    75    76   ar
    49    75    74    1
    50    32    34   ar
    51    73    74    1
    52    73    70    1
    53    69    70    1
    54    78    79    1
    55    78    71   am
    56    79    80    1
    57    70    71    1
    58    37    38    1
    59    37    36   ar
    60    71    72    2
    61    34    36   ar
    62    89    88    2
    63    80    81    2
    64    80    86   am
    65    54    56   ar
    66    54    52   ar
    67    56    55   ar
    68    86    87    1
    69    52    51   ar
    70    88    87    1
    71    87    90    1
    72    55    53   ar
    73    42    41    2
    74    51    53   ar
    75    51    50    1
    76    90    91    1
    77    94    93    1
    78    92    91    1
    79    92    93    1
    80    45    39    1
    81    45    44    1
    82    50    47    1
    83    39    40    1
    84    41    46   am
    85    41    40    1
    86    47    46    1
    87    47    48    1
    88    40    43    1
    89    44    43    1
    90    57    48   am
    91    57    58    1
    92    48    49    2
    93    58    59    1
    94    60    59    2
