@<TRIPOS>MOLECULE
tmp/2dwmG00.pdb
 105 105 0 0 0
SMALL
GASTEIGER

@<TRIPOS>ATOM
      1  N         29.4580   10.0560   11.1340 N.3    13  ARG13      -0.1231
      2  CA        29.9990   11.3940   11.3530 C.3    13  ARG13       0.1694
      3  C         28.9580   12.3980   10.8510 C.2    13  ARG13       0.2593
      4  O         28.7880   12.5750    9.6440 O.2    13  ARG13      -0.2718
      5  CB        31.3300   11.5520   10.5940 C.3    13  ARG13       0.0321
      6  CG        31.9960   12.9220   10.7250 C.3    13  ARG13       0.0489
      7  CD        31.3810   13.9460    9.7820 C.3    13  ARG13       0.2205
      8  NE        31.7920   15.3120   10.0890 N.pl3  13  ARG13      -0.0865
      9  CZ        33.0170   15.7920    9.8870 C.cat  13  ARG13       0.5346
     10  NH1       33.9680   15.0200    9.3690 N.pl3  13  ARG13       0.1354
     11  NH2       33.3010   17.0480   10.2140 N.pl3  13  ARG13       0.1354
     12  N         28.2450   13.0430   11.7710 N.am   14  THR14      -0.1939
     13  CA        27.2300   14.0040   11.3600 C.3    14  THR14       0.2028
     14  C         27.4030   15.3910   11.9870 C.2    14  THR14       0.2642
     15  O         28.2120   15.5770   12.9010 O.2    14  THR14      -0.2714
     16  CB        25.8100   13.4590   11.6420 C.3    14  THR14       0.1808
     17  OG1       24.8560   14.2520   10.9290 O.3    14  THR14      -0.2208
     18  CG2       25.4970   13.4790   13.1430 C.3    14  THR14       0.0379
     19  N         26.6400   16.3540   11.4690 N.am   15  PHE15      -0.1959
     20  CA        26.6850   17.7490   11.9130 C.3    15  PHE15       0.1771
     21  C         25.4540   18.1430   12.7370 C.2    15  PHE15       0.2620
     22  O         24.3190   18.0660   12.2590 O.2    15  PHE15      -0.2715
     23  CB        26.8200   18.6630   10.6920 C.3    15  PHE15       0.0574
     24  CG        27.9450   18.2750    9.7730 C.ar   15  PHE15      -0.0200
     25  CD1       27.8390   17.1470    8.9630 C.ar   15  PHE15      -0.0042
     26  CD2       29.1290   19.0090    9.7510 C.ar   15  PHE15      -0.0042
     27  CE1       28.8980   16.7490    8.1460 C.ar   15  PHE15      -0.0003
     28  CE2       30.1990   18.6210    8.9380 C.ar   15  PHE15      -0.0003
     29  CZ        30.0800   17.4860    8.1330 C.ar   15  PHE15      -0.0000
     30  N         25.6930   18.5910   13.9690 N.am   16  ASP16      -0.1957
     31  CA        24.6180   18.9520   14.8810 C.3    16  ASP16       0.1840
     32  C         24.0390   20.3450   14.6820 C.2    16  ASP16       0.2622
     33  O         24.7670   21.3130   14.5100 O.2    16  ASP16      -0.2715
     34  CB        25.1120   18.7820   16.3140 C.3    16  ASP16       0.1450
     35  CG        25.7150   17.4050   16.5640 C.2    16  ASP16       0.3671
     36  OD1       26.3630   17.2500   17.6260 O.co2  16  ASP16      -0.2456
     37  OD2       25.5460   16.4860   15.7220 O.co2  16  ASP16      -0.2456
     38  N         22.7150   20.4290   14.6930 N.am   17  TYR17      -0.1974
     39  CA        22.0060   21.6940   14.5390 C.3    17  TYR17       0.1639
     40  C         20.9400   21.7680   15.6190 C.2    17  TYR17       0.2290
     41  O         20.3170   20.7560   15.9660 O.2    17  TYR17      -0.2864
     42  CB        21.3210   21.7950   13.1800 C.3    17  TYR17       0.0560
     43  CG        22.2660   21.8900   12.0200 C.ar   17  TYR17      -0.0198
     44  CD1       22.7040   20.7500   11.3630 C.ar   17  TYR17      -0.0009
     45  CD2       22.7410   23.1250   11.5890 C.ar   17  TYR17      -0.0009
     46  CE1       23.5940   20.8380   10.2990 C.ar   17  TYR17       0.0417
     47  CE2       23.6280   23.2230   10.5400 C.ar   17  TYR17       0.0417
     48  CZ        24.0560   22.0840    9.8940 C.ar   17  TYR17       0.1957
     49  OH        24.9540   22.1890    8.8520 O.3    17  TYR17      -0.2866
     50  N         22.4020   26.4240    8.3510 N.3    34  PRO34      -0.2102
     51  CA        23.5360   27.2560    7.9520 C.3    34  PRO34       0.1504
     52  C         24.7600   26.3530    7.8110 C.2    34  PRO34       0.2576
     53  O         24.7780   25.2310    8.3160 O.2    34  PRO34      -0.2718
     54  CB        23.6830   28.2190    9.1280 C.3    34  PRO34       0.0282
     55  CG        22.2850   28.3500    9.6370 C.3    34  PRO34       0.0208
     56  CD        21.8160   26.9100    9.6180 C.3    34  PRO34       0.0893
     57  N         25.7610   26.8510    7.1100 N.am   35  PHE35      -0.1963
     58  CA        26.9880   26.1180    6.9220 C.3    35  PHE35       0.1771
     59  C         27.9840   27.2650    6.9090 C.2    35  PHE35       0.2620
     60  O         27.5350   28.4100    6.8110 O.2    35  PHE35      -0.2715
     61  CB        26.9820   25.4000    5.5710 C.3    35  PHE35       0.0574
     62  CG        28.0550   24.3640    5.4440 C.ar   35  PHE35      -0.0200
     63  CD1       27.9370   23.1480    6.1010 C.ar   35  PHE35      -0.0042
     64  CD2       29.2230   24.6420    4.7350 C.ar   35  PHE35      -0.0042
     65  CE1       28.9670   22.2170    6.0640 C.ar   35  PHE35      -0.0003
     66  CE2       30.2740   23.7190    4.6840 C.ar   35  PHE35      -0.0003
     67  CZ        30.1460   22.4950    5.3590 C.ar   35  PHE35      -0.0000
     68  N         29.2970   27.0100    7.0050 N.am   36  GLY36      -0.1954
     69  CA        30.2640   28.1160    7.0050 C.3    36  GLY36       0.1869
     70  C         29.7170   29.4040    7.6100 C.2    36  GLY36       0.2309
     71  O         28.6000   29.4190    8.1100 O.2    36  GLY36      -0.2863
     72  N         28.9870   19.1790   21.6120 N.3    54  LEU54      -0.1245
     73  CA        29.3510   20.5860   21.7340 C.3    54  LEU54       0.1561
     74  C         28.3650   21.4390   22.5230 C.2    54  LEU54       0.2260
     75  O         27.1940   21.0870   22.6630 O.2    54  LEU54      -0.2867
     76  CB        29.5530   21.1890   20.3430 C.3    54  LEU54       0.0270
     77  CG        30.9840   21.5730   19.9990 C.3    54  LEU54       0.0019
     78  CD1       31.0650   23.1160   19.9720 C.3    54  LEU54       0.0001
     79  CD2       31.9950   21.0020   21.0340 C.3    54  LEU54       0.0001
     80  N         26.4530   26.9970   21.4610 N.3    58  GLU58      -0.1231
     81  CA        27.5650   27.2480   20.5480 C.3    58  GLU58       0.1699
     82  C         27.2120   26.6610   19.1840 C.2    58  GLU58       0.2592
     83  O         28.0200   26.6920   18.2510 O.2    58  GLU58      -0.2718
     84  CB        28.8260   26.5730   21.1200 C.3    58  GLU58       0.0402
     85  CG        30.1050   26.6930   20.3040 C.3    58  GLU58       0.1161
     86  CD        31.3230   26.1400   21.0470 C.2    58  GLU58       0.3649
     87  OE1       32.3630   25.9010   20.4000 O.co2  58  GLU58      -0.2457
     88  OE2       31.2480   25.9540   22.2800 O.co2  58  GLU58      -0.2457
     89  N         25.9810   26.1590   19.0840 N.am   59  LEU59      -0.1966
     90  CA        25.4640   25.4890   17.8880 C.3    59  LEU59       0.1728
     91  C         24.5000   26.2820   17.0280 C.2    59  LEU59       0.2616
     92  O         23.4310   26.6520   17.4950 O.2    59  LEU59      -0.2715
     93  CB        24.7390   24.1990   18.2940 C.3    59  LEU59       0.0311
     94  CG        25.4630   22.9830   18.8680 C.3    59  LEU59       0.0022
     95  CD1       24.4360   21.9420   19.3140 C.3    59  LEU59       0.0001
     96  CD2       26.3980   22.3900   17.8250 C.3    59  LEU59       0.0001
     97  N         24.8460   26.4880   15.7570 N.am   60  LYS60      -0.1977
     98  CA        23.9530   27.2020   14.8430 C.3    60  LYS60       0.1596
     99  C         22.6020   26.4940   14.9220 C.2    60  LYS60       0.2287
    100  O         22.5240   25.3350   15.3310 O.2    60  LYS60      -0.2864
    101  CB        24.4930   27.1740   13.4030 C.3    60  LYS60       0.0298
    102  CG        25.7350   28.0270   13.1590 C.3    60  LYS60       0.0038
    103  CD        25.3620   29.4860   13.0340 C.3    60  LYS60       0.0206
    104  CE        26.5900   30.3550   12.9200 C.3    60  LYS60       0.1093
    105  NZ        27.2540   30.1900   11.6110 N.3    60  LYS60      -0.1314
@<TRIPOS>BOND
     1    66    64   ar
     2    66    67   ar
     3    64    62   ar
     4    67    65   ar
     5    62    61    1
     6    62    63   ar
     7    61    58    1
     8    65    63   ar
     9    60    59    2
    10    59    58    1
    11    59    68   am
    12    58    57    1
    13    69    68    1
    14    69    70    1
    15    57    52   am
    16    70    71    2
    17    52    51    1
    18    52    53    2
    19    51    50    1
    20    51    54    1
    21    29    27   ar
    22    29    28   ar
    23    27    25   ar
    24    50    56    1
    25    49    48    1
    26    28    26   ar
    27    25    24   ar
    28    54    55    1
    29    10     9    1
    30    56    55    1
    31     4     3    2
    32    26    24   ar
    33    24    23    1
    34     7     8    1
    35     7     6    1
    36     9     8    2
    37     9    11    1
    38    48    46   ar
    39    48    47   ar
    40    46    44   ar
    41    47    45   ar
    42     5     6    1
    43     5     2    1
    44    23    20    1
    45     3     2    1
    46     3    12   am
    47    17    16    1
    48     1     2    1
    49    13    16    1
    50    13    12    1
    51    13    14    1
    52    44    43   ar
    53    19    20    1
    54    19    14   am
    55    45    43   ar
    56   105   104    1
    57    16    18    1
    58    20    21    1
    59    14    15    2
    60    43    42    1
    61    22    21    2
    62    21    30   am
    63   104   103    1
    64   103   102    1
    65   102   101    1
    66    42    39    1
    67   101    98    1
    68    30    31    1
    69    33    32    2
    70    39    38    1
    71    39    40    1
    72    32    38   am
    73    32    31    1
    74    98    99    1
    75    98    97    1
    76    31    34    1
    77    99   100    2
    78    40    41    2
    79    37    35   ar
    80    97    91   am
    81    34    35    1
    82    35    36   ar
    83    91    92    2
    84    91    90    1
    85    96    94    1
    86    90    93    1
    87    90    89    1
    88    83    82    2
    89    93    94    1
    90    94    95    1
    91    89    82   am
    92    82    81    1
    93    78    77    1
    94    77    76    1
    95    77    79    1
    96    85    86    1
    97    85    84    1
    98    76    73    1
    99    87    86   ar
   100    81    84    1
   101    81    80    1
   102    86    88   ar
   103    72    73    1
   104    73    74    1
   105    74    75    2
