@<TRIPOS>MOLECULE
tmp/2dwnC00.pdb
 94 94 0 0 0
SMALL
GASTEIGER

@<TRIPOS>ATOM
      1  N         37.7960   16.2400    6.3040 N.3    15  THR15      -0.1203
      2  CA        38.8520   16.3880    7.2970 C.3    15  THR15       0.1994
      3  C         38.7100   17.5580    8.3000 C.2    15  THR15       0.2618
      4  O         38.0410   18.5590    8.0210 O.2    15  THR15      -0.2717
      5  CB        40.1760   16.5170    6.5720 C.3    15  THR15       0.1784
      6  OG1       41.2130   16.0150    7.4050 O.3    15  THR15      -0.2211
      7  CG2       40.4440   17.9760    6.2160 C.3    15  THR15       0.0376
      8  N         39.3730   17.4300    9.4490 N.am   16  PHE16      -0.1961
      9  CA        39.3320   18.4340   10.5200 C.3    16  PHE16       0.1771
     10  C         40.5840   19.3560   10.5920 C.2    16  PHE16       0.2620
     11  O         41.6940   18.8760   10.8370 O.2    16  PHE16      -0.2715
     12  CB        39.1300   17.7090   11.8580 C.3    16  PHE16       0.0574
     13  CG        37.9200   16.8070   11.8830 C.ar   16  PHE16      -0.0200
     14  CD1       37.9220   15.5910   11.2080 C.ar   16  PHE16      -0.0042
     15  CD2       36.7600   17.2010   12.5390 C.ar   16  PHE16      -0.0042
     16  CE1       36.7880   14.7770   11.1790 C.ar   16  PHE16      -0.0003
     17  CE2       35.6160   16.4060   12.5200 C.ar   16  PHE16      -0.0003
     18  CZ        35.6290   15.1870   11.8370 C.ar   16  PHE16      -0.0000
     19  N         40.3990   20.6700   10.4000 N.am   17  ASP17      -0.1957
     20  CA        41.5160   21.6250   10.4200 C.3    17  ASP17       0.1840
     21  C         41.9530   22.0400   11.8140 C.2    17  ASP17       0.2622
     22  O         41.1350   22.4110   12.6580 O.2    17  ASP17      -0.2715
     23  CB        41.1820   22.9070    9.6430 C.3    17  ASP17       0.1450
     24  CG        40.6060   22.6380    8.2680 C.2    17  ASP17       0.3671
     25  OD1       41.0010   21.6320    7.6450 O.co2  17  ASP17      -0.2456
     26  OD2       39.7650   23.4420    7.8000 O.co2  17  ASP17      -0.2456
     27  N         43.2580   21.9730   12.0380 N.am   18  TYR18      -0.1974
     28  CA        43.8560   22.3660   13.3050 C.3    18  TYR18       0.1639
     29  C         44.9650   23.3580   12.9530 C.2    18  TYR18       0.2290
     30  O         45.2940   23.5320   11.7750 O.2    18  TYR18      -0.2864
     31  CB        44.4320   21.1500   14.0560 C.3    18  TYR18       0.0560
     32  CG        43.3740   20.2980   14.7210 C.ar   18  TYR18      -0.0198
     33  CD1       42.5600   19.4470   13.9740 C.ar   18  TYR18      -0.0009
     34  CD2       43.1050   20.4360   16.0830 C.ar   18  TYR18      -0.0009
     35  CE1       41.4900   18.7670   14.5680 C.ar   18  TYR18       0.0417
     36  CE2       42.0450   19.7670   16.6870 C.ar   18  TYR18       0.0417
     37  CZ        41.2380   18.9380   15.9290 C.ar   18  TYR18       0.1957
     38  OH        40.1660   18.3260   16.5430 O.3    18  TYR18      -0.2866
     39  N         42.7580   18.1200   19.9880 N.3    35  PRO35      -0.2102
     40  CA        41.6080   18.1930   20.8850 C.3    35  PRO35       0.1504
     41  C         40.3190   17.9160   20.0980 C.2    35  PRO35       0.2576
     42  O         40.0670   18.5010   19.0300 O.2    35  PRO35      -0.2718
     43  CB        41.6690   19.6240   21.4130 C.3    35  PRO35       0.0282
     44  CG        43.1160   20.0240   21.1740 C.3    35  PRO35       0.0208
     45  CD        43.3590   19.4530   19.8290 C.3    35  PRO35       0.0893
     46  N         39.5100   17.0190   20.6380 N.am   36  PHE36      -0.1963
     47  CA        38.2560   16.6580   20.0190 C.3    36  PHE36       0.1771
     48  C         37.2100   16.6840   21.1290 C.2    36  PHE36       0.2620
     49  O         37.4650   16.1870   22.2320 O.2    36  PHE36      -0.2715
     50  CB        38.3610   15.2520   19.4250 C.3    36  PHE36       0.0574
     51  CG        37.1640   14.8440   18.6220 C.ar   36  PHE36      -0.0200
     52  CD1       36.8930   15.4560   17.4030 C.ar   36  PHE36      -0.0042
     53  CD2       36.2720   13.8900   19.1120 C.ar   36  PHE36      -0.0042
     54  CE1       35.7490   15.1320   16.6800 C.ar   36  PHE36      -0.0003
     55  CE2       35.1210   13.5560   18.3990 C.ar   36  PHE36      -0.0003
     56  CZ        34.8590   14.1810   17.1790 C.ar   36  PHE36      -0.0000
     57  N         36.0450   17.2640   20.8440 N.am   37  GLY37      -0.1954
     58  CA        34.9900   17.3270   21.8380 C.3    37  GLY37       0.1869
     59  C         35.1470   18.5170   22.7580 C.2    37  GLY37       0.2309
     60  O         35.2660   19.6550   22.3000 O.2    37  GLY37      -0.2863
     61  N         37.8700   28.0560    7.1740 N.3    55  LEU55      -0.1245
     62  CA        37.1160   28.3960    8.3860 C.3    55  LEU55       0.1561
     63  C         37.8780   29.4970    9.1720 C.2    55  LEU55       0.2260
     64  O         39.0460   29.7790    8.8870 O.2    55  LEU55      -0.2867
     65  CB        36.9340   27.1750    9.2960 C.3    55  LEU55       0.0270
     66  CG        35.9490   26.0990    8.8570 C.3    55  LEU55       0.0019
     67  CD1       36.6790   25.1250    7.9240 C.3    55  LEU55       0.0001
     68  CD2       35.3600   25.3780   10.0820 C.3    55  LEU55       0.0001
     69  N         38.8680   30.1250   15.6570 N.3    59  GLU59      -0.1231
     70  CA        37.7450   29.3630   16.1730 C.3    59  GLU59       0.1699
     71  C         38.2740   27.9360   16.3390 C.2    59  GLU59       0.2592
     72  O         37.7620   27.1430   17.1390 O.2    59  GLU59      -0.2718
     73  CB        36.5880   29.3910   15.1650 C.3    59  GLU59       0.0402
     74  CG        35.2910   28.7460   15.6630 C.3    59  GLU59       0.1161
     75  CD        34.1300   28.9510   14.7070 C.2    59  GLU59       0.3649
     76  OE1       33.1780   28.1430   14.7320 O.co2  59  GLU59      -0.2457
     77  OE2       34.1670   29.9260   13.9340 O.co2  59  GLU59      -0.2457
     78  N         39.3220   27.6390   15.5750 N.am   60  LEU60      -0.1966
     79  CA        39.9590   26.3310   15.5580 C.3    60  LEU60       0.1728
     80  C         41.1790   26.2770   16.4540 C.2    60  LEU60       0.2616
     81  O         42.0670   27.1350   16.3810 O.2    60  LEU60      -0.2715
     82  CB        40.3780   25.9610   14.1240 C.3    60  LEU60       0.0311
     83  CG        41.5820   26.6540   13.4730 C.3    60  LEU60       0.0022
     84  CD1       41.6100   26.3140   11.9980 C.3    60  LEU60       0.0001
     85  CD2       41.4900   28.1630   13.6420 C.3    60  LEU60       0.0001
     86  N         41.2140   25.2400   17.2860 N.am   61  LYS61      -0.1977
     87  CA        42.3100   25.0170   18.2180 C.3    61  LYS61       0.1596
     88  C         43.5730   24.6060   17.4460 C.2    61  LYS61       0.2287
     89  O         43.5610   24.5140   16.2100 O.2    61  LYS61      -0.2864
     90  CB        41.9180   23.9250   19.2310 C.3    61  LYS61       0.0298
     91  CG        40.5400   24.1170   19.9150 C.3    61  LYS61       0.0038
     92  CD        39.4290   23.3760   19.1550 C.3    61  LYS61       0.0206
     93  CE        38.0830   23.4320   19.8660 C.3    61  LYS61       0.1093
     94  NZ        37.0350   22.7150   19.0770 N.3    61  LYS61      -0.1314
@<TRIPOS>BOND
     1     7     5    1
     2     1     2    1
     3     5     2    1
     4     5     6    1
     5    61    62    1
     6     2     3    1
     7    25    24   ar
     8    26    24   ar
     9    67    66    1
    10     4     3    2
    11    24    23    1
    12     3     8   am
    13    62    63    1
    14    62    65    1
    15    66    65    1
    16    66    68    1
    17    64    63    2
    18     8     9    1
    19    23    20    1
    20    19    20    1
    21    19    10   am
    22    20    21    1
    23     9    10    1
    24     9    12    1
    25    10    11    2
    26    16    14   ar
    27    16    18   ar
    28    14    13   ar
    29    30    29    2
    30    21    27   am
    31    21    22    2
    32    18    17   ar
    33    12    13    1
    34    13    15   ar
    35    84    83    1
    36    27    28    1
    37    17    15   ar
    38    29    28    1
    39    28    31    1
    40    83    85    1
    41    83    82    1
    42    77    75   ar
    43    33    35   ar
    44    33    32   ar
    45    31    32    1
    46    82    79    1
    47    35    37   ar
    48    75    76   ar
    49    75    74    1
    50    32    34   ar
    51    73    74    1
    52    73    70    1
    53    79    78    1
    54    79    80    1
    55    78    71   am
    56    69    70    1
    57    37    38    1
    58    37    36   ar
    59    34    36   ar
    60    70    71    1
    61    89    88    2
    62    71    72    2
    63    81    80    2
    64    80    86   am
    65    54    56   ar
    66    54    52   ar
    67    56    55   ar
    68    86    87    1
    69    52    51   ar
    70    88    87    1
    71    87    90    1
    72    55    53   ar
    73    51    53   ar
    74    51    50    1
    75    42    41    2
    76    94    93    1
    77    92    93    1
    78    92    91    1
    79    90    91    1
    80    50    47    1
    81    45    39    1
    82    45    44    1
    83    39    40    1
    84    47    46    1
    85    47    48    1
    86    41    46   am
    87    41    40    1
    88    57    48   am
    89    57    58    1
    90    40    43    1
    91    48    49    2
    92    44    43    1
    93    58    59    1
    94    60    59    2
