@<TRIPOS>MOLECULE
tmp/2dwpA02.pdb
 210 201 0 0 0
SMALL
GASTEIGER

@<TRIPOS>ATOM
      1  N         -2.2200   45.8700    4.1120 N.3    29  PRO29      -0.2102
      2  CA        -3.6280   45.5630    3.8380 C.3    29  PRO29       0.1504
      3  C         -4.3110   44.8560    5.0130 C.2    29  PRO29       0.2576
      4  O         -3.6440   44.2790    5.8730 O.2    29  PRO29      -0.2718
      5  CB        -3.5550   44.6980    2.5780 C.3    29  PRO29       0.0282
      6  CG        -2.1730   44.1140    2.6260 C.3    29  PRO29       0.0208
      7  CD        -1.3430   45.2680    3.0960 C.3    29  PRO29       0.0893
      8  N         -5.6410   44.9150    5.0350 N.am   30  ALA30      -0.1966
      9  CA        -6.4530   44.3230    6.0970 C.3    30  ALA30       0.1728
     10  C         -6.1430   44.9730    7.4510 C.2    30  ALA30       0.2616
     11  O         -6.0830   44.2980    8.4810 O.2    30  ALA30      -0.2715
     12  CB        -6.2270   42.8080    6.1640 C.3    30  ALA30       0.0334
     13  N         -5.9470   46.2880    7.4380 N.am   31  ARG31      -0.1963
     14  CA        -5.6520   47.0380    8.6550 C.3    31  ARG31       0.1729
     15  C         -6.6940   48.1260    8.9320 C.2    31  ARG31       0.2617
     16  O         -6.4950   48.9820    9.7900 O.2    31  ARG31      -0.2715
     17  CB        -4.2590   47.6720    8.5720 C.3    31  ARG31       0.0348
     18  CG        -3.1590   46.9030    9.2860 C.3    31  ARG31       0.0492
     19  CD        -2.9220   45.5320    8.6800 C.3    31  ARG31       0.2205
     20  NE        -1.7890   44.8620    9.3110 N.pl3  31  ARG31      -0.0865
     21  CZ        -1.3390   43.6630    8.9610 C.cat  31  ARG31       0.5346
     22  NH1       -1.9260   42.9910    7.9810 N.pl3  31  ARG31       0.1354
     23  NH2       -0.2970   43.1370    9.5870 N.pl3  31  ARG31       0.1354
     24  N         -7.7950   48.0900    8.1910 N.am   32  GLY32      -0.1940
     25  CA        -8.8540   49.0600    8.3890 C.3    32  GLY32       0.2014
     26  C         -8.6350   50.4290    7.7700 C.2    32  GLY32       0.2639
     27  O         -9.3290   51.3790    8.1200 O.2    32  GLY32      -0.2714
     28  N         -7.6890   50.5500    6.8470 N.am   33  LYS33      -0.1963
     29  CA        -7.4380   51.8450    6.2380 C.3    33  LYS33       0.1728
     30  C         -8.6780   52.4000    5.5470 C.2    33  LYS33       0.2617
     31  O         -9.0060   53.5730    5.7090 O.2    33  LYS33      -0.2715
     32  CB        -6.2820   51.7590    5.2410 C.3    33  LYS33       0.0311
     33  CG        -4.9490   51.4180    5.8750 C.3    33  LYS33       0.0038
     34  CD        -3.8140   51.4860    4.8560 C.3    33  LYS33       0.0206
     35  CE        -4.0590   50.5660    3.6640 C.3    33  LYS33       0.1093
     36  NZ        -4.0800   49.1140    4.0330 N.3    33  LYS33      -0.1314
     37  N         -9.3710   51.5690    4.7760 N.am   34  THR34      -0.1937
     38  CA       -10.5610   52.0460    4.0830 C.3    34  THR34       0.2028
     39  C        -11.7270   52.2510    5.0410 C.2    34  THR34       0.2642
     40  O        -12.5090   53.1930    4.8920 O.2    34  THR34      -0.2714
     41  CB       -10.9710   51.0920    2.9600 C.3    34  THR34       0.1808
     42  OG1      -10.0000   51.1710    1.9220 O.3    34  THR34      -0.2208
     43  CG2      -12.3230   51.4780    2.3840 C.3    34  THR34       0.0379
     44  N        -11.8360   51.3670    6.0240 N.am   35  TYR35      -0.1959
     45  CA       -12.8820   51.4700    7.0220 C.3    35  TYR35       0.1771
     46  C        -12.7790   52.8650    7.6220 C.2    35  TYR35       0.2619
     47  O        -13.7220   53.6490    7.5880 O.2    35  TYR35      -0.2715
     48  CB       -12.6490   50.4370    8.1090 C.3    35  TYR35       0.0574
     49  CG       -13.7180   50.4150    9.1600 C.ar   35  TYR35      -0.0198
     50  CD1      -14.9050   49.7230    8.9520 C.ar   35  TYR35      -0.0009
     51  CD2      -13.5400   51.0740   10.3740 C.ar   35  TYR35      -0.0009
     52  CE1      -15.8850   49.6830    9.9250 C.ar   35  TYR35       0.0417
     53  CE2      -14.5130   51.0400   11.3540 C.ar   35  TYR35       0.0417
     54  CZ       -15.6850   50.3420   11.1240 C.ar   35  TYR35       0.1957
     55  OH       -16.6610   50.2960   12.0940 O.3    35  TYR35      -0.2866
     56  N        -11.6080   53.1650    8.1650 N.am   36  ILE36      -0.1977
     57  CA       -11.3410   54.4550    8.7690 C.3    36  ILE36       0.1596
     58  C        -11.5960   55.5930    7.7900 C.2    36  ILE36       0.2287
     59  O        -12.2370   56.5790    8.1360 O.2    36  ILE36      -0.2864
     60  CB        -9.8880   54.5270    9.2470 C.3    36  ILE36       0.0276
     61  CG1       -9.6350   53.4030   10.2520 C.3    36  ILE36       0.0022
     62  CG2       -9.6010   55.8880    9.8590 C.3    36  ILE36       0.0022
     63  CD1       -8.1940   53.2440   10.6430 C.3    36  ILE36       0.0001
     64  N         -9.6710   56.2650   -3.0090 N.3    55  ASN55      -0.1240
     65  CA        -9.1900   54.9010   -2.8480 C.3    55  ASN55       0.1653
     66  C         -8.3670   54.5250   -4.0770 C.2    55  ASN55       0.2266
     67  O         -8.9150   54.3640   -5.1670 O.2    55  ASN55      -0.2867
     68  CB       -10.3970   53.9680   -2.7090 C.3    55  ASN55       0.1155
     69  CG       -10.0120   52.5500   -2.3650 C.2    55  ASN55       0.2627
     70  OD1       -9.5800   52.2570   -1.2510 O.2    55  ASN55      -0.2716
     71  ND2      -10.1690   51.6570   -3.3260 N.am   55  ASN55      -0.0877
     72  N         -6.5650   57.0340    0.3500 N.3   110  ASP110     -0.1225
     73  CA        -6.6350   55.6590    0.8430 C.3   110  ASP110      0.1805
     74  C         -5.7700   54.6720    0.0740 C.2   110  ASP110      0.2598
     75  O         -6.1440   54.1680   -0.9930 O.2   110  ASP110     -0.2718
     76  CB        -8.0910   55.1740    0.8550 C.3   110  ASP110      0.1424
     77  CG        -8.2400   53.8250    1.4970 C.2   110  ASP110      0.3668
     78  OD1       -7.4360   53.4970    2.3950 O.co2 110  ASP110     -0.2456
     79  OD2       -9.1750   53.1030    1.1220 O.co2 110  ASP110     -0.2456
     80  N         -4.6010   54.4040    0.6410 N.am  111  ALA111     -0.1966
     81  CA        -3.6070   53.5140    0.0640 C.3   111  ALA111      0.1728
     82  C         -2.7180   52.9630    1.1620 C.2   111  ALA111      0.2616
     83  O         -2.8070   53.4110    2.3050 O.2   111  ALA111     -0.2715
     84  CB        -2.7790   54.2620   -0.9720 C.3   111  ALA111      0.0334
     85  N         -1.8980   51.9720    0.8330 N.am  112  THR112     -0.1951
     86  CA        -1.0140   51.3930    1.8270 C.3   112  THR112      0.1897
     87  C          0.0640   52.4130    2.1790 C.2   112  THR112      0.2313
     88  O          0.4090   52.5730    3.3430 O.2   112  THR112     -0.2863
     89  CB        -0.3300   50.0990    1.3150 C.3   112  THR112      0.1794
     90  OG1        0.4940   50.4100    0.1880 O.3   112  THR112     -0.2208
     91  CG2       -1.3680   49.0480    0.9160 C.3   112  THR112      0.0378
     92  N         -2.2550   52.6440   10.6480 N.3   138  SER138     -0.1202
     93  CA        -2.9130   51.6080   11.4160 C.3   138  SER138      0.2020
     94  C         -1.9590   50.4300   11.5290 C.2   138  SER138      0.2619
     95  O         -1.6480   49.7870   10.5340 O.2   138  SER138     -0.2717
     96  CB        -4.1970   51.1920   10.7050 C.3   138  SER138      0.2103
     97  OG        -5.0620   50.5030   11.5820 O.3   138  SER138     -0.2182
     98  N         -1.4810   50.1630   12.7400 N.am  139  VAL139     -0.1965
     99  CA        -0.5580   49.0590   12.9720 C.3   139  VAL139      0.1727
    100  C         -1.2430   47.9870   13.8070 C.2   139  VAL139      0.2616
    101  O         -1.8010   48.2790   14.8650 O.2   139  VAL139     -0.2715
    102  CB         0.7170   49.5360   13.7190 C.3   139  VAL139      0.0290
    103  CG1        1.6950   48.3830   13.8750 C.3   139  VAL139      0.0023
    104  CG2        1.3690   50.6810   12.9630 C.3   139  VAL139      0.0023
    105  N         -1.2200   46.7510   13.3160 N.am  140  CYS140     -0.1968
    106  CA        -1.8210   45.6240   14.0280 C.3   140  CYS140      0.1712
    107  C         -1.3100   44.2990   13.4800 C.2   140  CYS140      0.2296
    108  O         -1.6600   43.8930   12.3690 O.2   140  CYS140     -0.2864
    109  CB        -3.3460   45.6480   13.9260 C.3   140  CYS140      0.0983
    110  SG        -4.1350   44.3220   14.8830 S.3   140  CYS140     -0.0798
    111  N         -7.0250   39.2450   14.4020 N.3   145  VAL145     -0.1245
    112  CA        -7.6330   40.4620   13.8640 C.3   145  VAL145      0.1561
    113  C         -7.5070   40.5220   12.3480 C.2   145  VAL145      0.2260
    114  O         -8.4950   40.7220   11.6420 O.2   145  VAL145     -0.2867
    115  CB        -6.9900   41.7410   14.4480 C.3   145  VAL145      0.0252
    116  CG1       -7.5620   42.9670   13.7560 C.3   145  VAL145      0.0019
    117  CG2       -7.2520   41.8200   15.9450 C.3   145  VAL145      0.0019
    118  N        -10.5050   40.4040    9.6780 N.3   149  ASN149     -0.1240
    119  CA       -10.6820   41.4940    8.7260 C.3   149  ASN149      0.1653
    120  C        -10.7590   40.9640    7.3030 C.2   149  ASN149      0.2266
    121  O        -11.6140   41.3820    6.5220 O.2   149  ASN149     -0.2867
    122  CB        -9.5300   42.4950    8.8320 C.3   149  ASN149      0.1155
    123  CG        -9.5850   43.3250   10.1020 C.2   149  ASN149      0.2627
    124  OD1       -8.7660   44.2200   10.2990 O.2   149  ASN149     -0.2716
    125  ND2      -10.5490   43.0360   10.9670 N.am  149  ASN149     -0.0877
    126  N        -14.2740   39.6670    6.7990 N.3   152  GLU152     -0.1231
    127  CA       -15.3340   40.6660    6.7990 C.3   152  GLU152      0.1699
    128  C        -15.4750   41.5710    5.5730 C.2   152  GLU152      0.2592
    129  O        -16.5960   41.9340    5.2080 O.2   152  GLU152     -0.2718
    130  CB       -15.2290   41.5300    8.0670 C.3   152  GLU152      0.0402
    131  CG       -16.4050   42.4840    8.2780 C.3   152  GLU152      0.1161
    132  CD       -16.4200   43.1130    9.6640 C.2   152  GLU152      0.3649
    133  OE1      -16.4290   42.3560   10.6590 O.co2 152  GLU152     -0.2457
    134  OE2      -16.4290   44.3600    9.7620 O.co2 152  GLU152     -0.2457
    135  N        -14.3680   41.9330    4.9250 N.am  153  VAL153     -0.1966
    136  CA       -14.4600   42.8240    3.7680 C.3   153  VAL153      0.1727
    137  C        -13.6130   42.5000    2.5420 C.2   153  VAL153      0.2616
    138  O        -13.5730   43.2920    1.5950 O.2   153  VAL153     -0.2715
    139  CB       -14.1300   44.2730    4.1650 C.3   153  VAL153      0.0290
    140  CG1      -15.0690   44.7450    5.2660 C.3   153  VAL153      0.0023
    141  CG2      -12.6800   44.3600    4.6180 C.3   153  VAL153      0.0023
    142  N        -12.9410   41.3530    2.5380 N.am  154  LYS154     -0.1977
    143  CA       -12.0950   40.9820    1.4020 C.3   154  LYS154      0.1596
    144  C        -12.6790   39.8770    0.5290 C.2   154  LYS154      0.2287
    145  O        -12.8880   40.0600   -0.6690 O.2   154  LYS154     -0.2864
    146  CB       -10.6940   40.5900    1.9010 C.3   154  LYS154      0.0298
    147  CG        -9.9670   41.6810    2.6860 C.3   154  LYS154      0.0038
    148  CD        -9.8770   42.9680    1.8960 C.3   154  LYS154      0.0206
    149  CE        -9.4100   44.1110    2.7610 C.3   154  LYS154      0.1093
    150  NZ        -9.3630   45.3550    1.9550 N.3   154  LYS154     -0.1314
    151  N         -5.1060   36.6260   -0.5120 N.3   172  PHE172     -0.1241
    152  CA        -4.9340   37.8750    0.2220 C.3   172  PHE172      0.1605
    153  C         -3.7560   37.7780    1.1920 C.2   172  PHE172      0.2264
    154  O         -3.0430   38.7550    1.4290 O.2   172  PHE172     -0.2867
    155  CB        -6.2030   38.2360    0.9940 C.3   172  PHE172      0.0534
    156  CG        -6.3750   39.7070    1.1900 C.ar  172  PHE172     -0.0203
    157  CD1       -6.8340   40.5030    0.1500 C.ar  172  PHE172     -0.0042
    158  CD2       -5.9940   40.3120    2.3810 C.ar  172  PHE172     -0.0042
    159  CE1       -6.9070   41.8790    0.2870 C.ar  172  PHE172     -0.0003
    160  CE2       -6.0620   41.6910    2.5310 C.ar  172  PHE172     -0.0003
    161  CZ        -6.5180   42.4770    1.4790 C.ar  172  PHE172     -0.0000
    162  N         -0.8410   38.3700   -0.7690 N.3   175  ARG175     -0.1245
    163  CA        -0.9140   39.7700   -1.1440 C.3   175  ARG175      0.1563
    164  C         -0.2910   40.6290   -0.0390 C.2   175  ARG175      0.2260
    165  O          0.4330   41.5810   -0.3190 O.2   175  ARG175     -0.2867
    166  CB        -2.3840   40.1200   -1.3530 C.3   175  ARG175      0.0307
    167  CG        -2.6790   41.3840   -2.1090 C.3   175  ARG175      0.0489
    168  CD        -4.1270   41.3390   -2.5440 C.3   175  ARG175      0.2205
    169  NE        -4.7320   42.6450   -2.7780 N.pl3 175  ARG175     -0.0865
    170  CZ        -5.9980   42.8030   -3.1500 C.cat 175  ARG175      0.5346
    171  NH1       -6.7730   41.7430   -3.3290 N.pl3 175  ARG175      0.1354
    172  NH2       -6.4960   44.0150   -3.3350 N.pl3 175  ARG175      0.1354
    173  N         -2.5670   54.6190   14.9100 N.3   200  VAL200     -0.1245
    174  CA        -3.5470   53.8210   15.6380 C.3   200  VAL200      0.1561
    175  C         -2.9680   52.4210   15.8020 C.2   200  VAL200      0.2260
    176  O         -2.6250   51.7710   14.8170 O.2   200  VAL200     -0.2867
    177  CB        -4.8890   53.7530   14.8790 C.3   200  VAL200      0.0252
    178  CG1       -5.9220   53.0020   15.7060 C.3   200  VAL200      0.0019
    179  CG2       -5.3820   55.1710   14.5740 C.3   200  VAL200      0.0019
    180  N         -6.1340   48.3280   16.8910 N.3   203  VAL203     -0.1245
    181  CA        -7.5150   48.7680   16.7830 C.3   203  VAL203      0.1561
    182  C         -7.9330   49.7860   17.8420 C.2   203  VAL203      0.2260
    183  O         -9.0200   49.6870   18.4150 O.2   203  VAL203     -0.2867
    184  CB        -8.4800   47.5750   16.8460 C.3   203  VAL203      0.0252
    185  CG1       -9.7820   47.9360   16.1450 C.3   203  VAL203      0.0019
    186  CG2       -7.8390   46.3540   16.2190 C.3   203  VAL203      0.0019
    187  N        -14.8860   49.0470   17.2750 N.3   229  VAL229     -0.1245
    188  CA       -15.4550   48.0500   16.3780 C.3   229  VAL229      0.1561
    189  C        -16.1750   46.8880   17.0500 C.2   229  VAL229      0.2260
    190  O        -16.5820   45.9490   16.3750 O.2   229  VAL229     -0.2867
    191  CB       -14.3820   47.4810   15.4230 C.3   229  VAL229      0.0252
    192  CG1      -13.9860   48.5380   14.4030 C.3   229  VAL229      0.0019
    193  CG2      -13.1610   47.0210   16.2170 C.3   229  VAL229      0.0019
    194  N        -19.6910   45.4150    7.6330 N.3   409  ALA409     -0.1231
    195  CA       -18.7080   45.7810    6.6170 C.3   409  ALA409      0.1694
    196  C        -18.1290   47.1730    6.8500 C.2   409  ALA409      0.2592
    197  O        -17.4740   47.4090    7.8640 O.2   409  ALA409     -0.2718
    198  CB       -19.3270   45.6860    5.2310 C.3   409  ALA409      0.0304
    199  N        -18.3660   48.0950    5.9210 N.am  410  TYR410     -0.1976
    200  CA       -17.8320   49.4440    6.0680 C.3   410  TYR410      0.1639
    201  C        -18.8230   50.4600    6.6080 C.2   410  TYR410      0.2290
    202  O        -18.4350   51.5710    6.9650 O.2   410  TYR410     -0.2864
    203  CB       -17.2810   49.9580    4.7370 C.3   410  TYR410      0.0560
    204  CG       -16.1410   49.1380    4.1910 C.ar  410  TYR410     -0.0198
    205  CD1      -16.3710   48.1330    3.2570 C.ar  410  TYR410     -0.0009
    206  CD2      -14.8320   49.3500    4.6260 C.ar  410  TYR410     -0.0009
    207  CE1      -15.3300   47.3590    2.7670 C.ar  410  TYR410      0.0417
    208  CE2      -13.7810   48.5800    4.1420 C.ar  410  TYR410      0.0417
    209  CZ       -14.0370   47.5870    3.2130 C.ar  410  TYR410      0.1957
    210  OH       -13.0040   46.8220    2.7200 O.3   410  TYR410     -0.2866
@<TRIPOS>BOND
     1    67    66    2
     2    66    65    1
     3   172   170    1
     4   171   170    1
     5    71    69   am
     6   170   169    2
     7    64    65    1
     8    65    68    1
     9   169   168    1
    10    68    69    1
    11   168   167    1
    12    69    70    2
    13   167   166    1
    14   166   163    1
    15   163   162    1
    16   163   164    1
    17    75    74    2
    18    84    81    1
    19   145   144    2
    20   151   152    1
    21   165   164    2
    22    81    80    1
    23    81    82    1
    24    74    80   am
    25    74    73    1
    26   157   159   ar
    27   157   156   ar
    28    90    89    1
    29   152   155    1
    30   152   153    1
    31   159   161   ar
    32    72    73    1
    33   144   143    1
    34    85    82   am
    35    85    86    1
    36    73    76    1
    37    76    77    1
    38    91    89    1
    39   155   156    1
    40    79    77   ar
    41    82    83    2
    42   156   158   ar
    43   153   154    2
    44    89    86    1
    45   143   146    1
    46   143   142    1
    47   161   160   ar
    48    77    78   ar
    49   138   137    2
    50    86    87    1
    51   148   147    1
    52   148   149    1
    53   146   147    1
    54    42    41    1
    55   150   149    1
    56    87    88    2
    57   158   160   ar
    58    43    41    1
    59   142   137   am
    60   137   136    1
    61     5     6    1
    62     5     2    1
    63     6     7    1
    64   210   209    1
    65   207   209   ar
    66   207   205   ar
    67    41    38    1
    68     7     1    1
    69   209   208   ar
    70   205   204   ar
    71    35    36    1
    72    35    34    1
    73   136   139    1
    74   136   135    1
    75     2     1    1
    76     2     3    1
    77    38    37    1
    78    38    39    1
    79   208   206   ar
    80   139   141    1
    81   139   140    1
    82   204   206   ar
    83   204   203    1
    84   203   200    1
    85    37    30   am
    86    34    33    1
    87    40    39    2
    88   135   128   am
    89     3     8   am
    90     3     4    2
    91     8     9    1
    92    39    44   am
    93   129   128    2
    94   198   195    1
    95    32    33    1
    96    32    29    1
    97    30    31    2
    98    30    29    1
    99   128   127    1
   100   199   200    1
   101   199   196   am
   102    44    45    1
   103   200   201    1
   104     9    12    1
   105     9    10    1
   106    29    28    1
   107   121   120    2
   108   201   202    2
   109   195   196    1
   110   195   194    1
   111   126   127    1
   112   127   130    1
   113    28    26   am
   114   196   197    2
   115    45    46    1
   116    45    48    1
   117   120   119    1
   118    13    10   am
   119    13    14    1
   120    10    11    2
   121    47    46    2
   122    46    56   am
   123    26    27    2
   124    26    25    1
   125    58    59    2
   126    58    57    1
   127    22    21    1
   128   130   131    1
   129    48    49    1
   130    56    57    1
   131    24    25    1
   132    24    15   am
   133   131   132    1
   134    17    14    1
   135    17    18    1
   136    14    15    1
   137    19    18    1
   138    19    20    1
   139   119   122    1
   140   119   118    1
   141    57    60    1
   142   122   123    1
   143    15    16    2
   144    50    49   ar
   145    50    52   ar
   146    21    20    2
   147    21    23    1
   148    49    51   ar
   149    60    62    1
   150    60    61    1
   151   132   134   ar
   152   132   133   ar
   153    52    54   ar
   154   123   124    2
   155   123   125   am
   156    61    63    1
   157    51    53   ar
   158    95    94    2
   159    92    93    1
   160    96    93    1
   161    96    97    1
   162    54    53   ar
   163    54    55    1
   164    93    94    1
   165    94    98   am
   166   114   113    2
   167   113   112    1
   168   108   107    2
   169    98    99    1
   170   104   102    1
   171    99   102    1
   172    99   100    1
   173   105   100   am
   174   105   106    1
   175   107   106    1
   176   102   103    1
   177   116   115    1
   178   100   101    2
   179   112   111    1
   180   112   115    1
   181   109   106    1
   182   109   110    1
   183   192   191    1
   184   115   117    1
   185   179   177    1
   186   176   175    2
   187   177   174    1
   188   177   178    1
   189   173   174    1
   190   191   193    1
   191   191   188    1
   192   174   175    1
   193   185   184    1
   194   186   184    1
   195   190   189    2
   196   188   189    1
   197   188   187    1
   198   181   184    1
   199   181   180    1
   200   181   182    1
   201   182   183    2
