@<TRIPOS>MOLECULE
tmp/2dwpA00.pdb
 171 164 0 0 0
SMALL
GASTEIGER

@<TRIPOS>ATOM
      1  N         -2.2200   45.8700    4.1120 N.3    29  PRO29      -0.2116
      2  CA        -3.6280   45.5630    3.8380 C.3    29  PRO29       0.1372
      3  C         -4.3110   44.8560    5.0130 C.2    29  PRO29       0.2244
      4  O         -3.6440   44.2790    5.8730 O.2    29  PRO29      -0.2868
      5  CB        -3.5550   44.6980    2.5780 C.3    29  PRO29       0.0268
      6  CG        -2.1730   44.1140    2.6260 C.3    29  PRO29       0.0207
      7  CD        -1.3430   45.2680    3.0960 C.3    29  PRO29       0.0892
      8  N         -7.6890   50.5500    6.8470 N.3    33  LYS33      -0.1245
      9  CA        -7.4380   51.8450    6.2380 C.3    33  LYS33       0.1561
     10  C         -8.6780   52.4000    5.5470 C.2    33  LYS33       0.2260
     11  O         -9.0060   53.5730    5.7090 O.2    33  LYS33      -0.2867
     12  CB        -6.2820   51.7590    5.2410 C.3    33  LYS33       0.0271
     13  CG        -4.9490   51.4180    5.8750 C.3    33  LYS33       0.0035
     14  CD        -3.8140   51.4860    4.8560 C.3    33  LYS33       0.0206
     15  CE        -4.0590   50.5660    3.6640 C.3    33  LYS33       0.1093
     16  NZ        -4.0800   49.1140    4.0330 N.3    33  LYS33      -0.1314
     17  N         -9.6710   56.2650   -3.0090 N.3    55  ASN55      -0.1225
     18  CA        -9.1900   54.9010   -2.8480 C.3    55  ASN55       0.1785
     19  C         -8.3670   54.5250   -4.0770 C.2    55  ASN55       0.2597
     20  O         -8.9150   54.3640   -5.1670 O.2    55  ASN55      -0.2718
     21  CB       -10.3970   53.9680   -2.7090 C.3    55  ASN55       0.1169
     22  CG       -10.0120   52.5500   -2.3650 C.2    55  ASN55       0.2627
     23  OD1       -9.5800   52.2570   -1.2510 O.2    55  ASN55      -0.2716
     24  ND2      -10.1690   51.6570   -3.3260 N.am   55  ASN55      -0.0877
     25  N         -7.0550   54.3920   -3.9120 N.am   56  VAL56      -0.1966
     26  CA        -6.1970   54.0570   -5.0400 C.3    56  VAL56       0.1727
     27  C         -6.5300   52.6580   -5.5640 C.2    56  VAL56       0.2616
     28  O         -6.2200   52.3130   -6.7090 O.2    56  VAL56      -0.2715
     29  CB        -4.7070   54.1610   -4.6490 C.3    56  VAL56       0.0290
     30  CG1       -3.8360   53.9170   -5.8650 C.3    56  VAL56       0.0023
     31  CG2       -4.4120   55.5440   -4.0890 C.3    56  VAL56       0.0023
     32  N         -7.1930   51.8660   -4.7280 N.am   57  GLY57      -0.1955
     33  CA        -7.5840   50.5330   -5.1350 C.3    57  GLY57       0.1869
     34  C         -8.5790   50.5940   -6.2800 C.2    57  GLY57       0.2309
     35  O         -8.4680   49.8410   -7.2390 O.2    57  GLY57      -0.2863
     36  N         -7.1590   51.3930   -9.5920 N.3    60  ARG60      -0.1231
     37  CA        -6.5090   50.1770  -10.0740 C.3    60  ARG60       0.1694
     38  C         -7.5530   49.2480  -10.6930 C.2    60  ARG60       0.2591
     39  O         -7.4040   48.7990  -11.8320 O.2    60  ARG60      -0.2718
     40  CB        -5.7980   49.5070   -8.8910 C.3    60  ARG60       0.0321
     41  CG        -4.9620   48.2840   -9.2040 C.3    60  ARG60       0.0489
     42  CD        -5.7360   47.0340   -8.8650 C.3    60  ARG60       0.2205
     43  NE        -6.1380   47.0110   -7.4630 N.pl3  60  ARG60      -0.0865
     44  CZ        -7.1230   46.2580   -6.9860 C.cat  60  ARG60       0.5346
     45  NH1       -7.8090   45.4650   -7.8050 N.pl3  60  ARG60       0.1354
     46  NH2       -7.4260   46.3010   -5.6940 N.pl3  60  ARG60       0.1354
     47  N         -8.6170   48.9740   -9.9440 N.am   61  ARG61      -0.1980
     48  CA        -9.6870   48.1160  -10.4400 C.3    61  ARG61       0.1597
     49  C        -10.3170   48.6990  -11.7030 C.2    61  ARG61       0.2287
     50  O        -10.9860   47.9960  -12.4580 O.2    61  ARG61      -0.2864
     51  CB       -10.7730   47.9340   -9.3780 C.3    61  ARG61       0.0334
     52  CG       -10.7390   46.5880   -8.6710 C.3    61  ARG61       0.0492
     53  CD       -12.0410   46.3340   -7.9160 C.3    61  ARG61       0.2205
     54  NE       -12.2000   47.2200   -6.7650 N.pl3  61  ARG61      -0.0865
     55  CZ       -11.6010   47.0370   -5.5900 C.cat  61  ARG61       0.5346
     56  NH1      -10.8040   45.9930   -5.4080 N.pl3  61  ARG61       0.1354
     57  NH2      -11.7950   47.8960   -4.5950 N.pl3  61  ARG61       0.1354
     58  N         -0.0400   40.3380   -9.0770 N.3    72  PHE72      -0.1227
     59  CA        -0.1360   41.7230   -9.5100 C.3    72  PHE72       0.1736
     60  C          0.6100   42.6420   -8.5560 C.2    72  PHE72       0.2595
     61  O          1.1820   43.6420   -8.9770 O.2    72  PHE72      -0.2718
     62  CB        -1.6010   42.1600   -9.5890 C.3    72  PHE72       0.0547
     63  CG        -1.7800   43.5680  -10.0600 C.ar   72  PHE72      -0.0202
     64  CD1       -1.8000   43.8660  -11.4160 C.ar   72  PHE72      -0.0042
     65  CD2       -1.8570   44.6100   -9.1470 C.ar   72  PHE72      -0.0042
     66  CE1       -1.8990   45.1870  -11.8580 C.ar   72  PHE72      -0.0003
     67  CE2       -1.9520   45.9310   -9.5770 C.ar   72  PHE72      -0.0003
     68  CZ        -1.9700   46.2190  -10.9340 C.ar   72  PHE72      -0.0000
     69  N          0.6150   42.2870   -7.2760 N.am   73  PHE73      -0.1976
     70  CA         1.2710   43.1010   -6.2640 C.3    73  PHE73       0.1639
     71  C          2.6870   42.6580   -5.8820 C.2    73  PHE73       0.2290
     72  O          3.1510   42.9490   -4.7820 O.2    73  PHE73      -0.2864
     73  CB         0.3970   43.1610   -5.0050 C.3    73  PHE73       0.0560
     74  CG        -1.0350   43.5150   -5.2810 C.ar   73  PHE73      -0.0200
     75  CD1       -1.9450   42.5350   -5.6630 C.ar   73  PHE73      -0.0042
     76  CD2       -1.4710   44.8330   -5.1880 C.ar   73  PHE73      -0.0042
     77  CE1       -3.2660   42.8650   -5.9580 C.ar   73  PHE73      -0.0003
     78  CE2       -2.7880   45.1690   -5.4820 C.ar   73  PHE73      -0.0003
     79  CZ        -3.6870   44.1820   -5.8640 C.ar   73  PHE73      -0.0000
     80  N          0.4170   50.6680  -10.9370 N.3    84  ARG84      -0.1245
     81  CA         0.0680   51.0660   -9.5820 C.3    84  ARG84       0.1563
     82  C          0.4970   52.5040   -9.3130 C.2    84  ARG84       0.2260
     83  O         -0.2260   53.2620   -8.6710 O.2    84  ARG84      -0.2867
     84  CB         0.7270   50.1250   -8.5750 C.3    84  ARG84       0.0307
     85  CG         0.1850   48.7030   -8.5890 C.3    84  ARG84       0.0489
     86  CD         1.0090   47.8160   -7.6690 C.3    84  ARG84       0.2205
     87  NE         1.1570   48.4280   -6.3510 N.pl3  84  ARG84      -0.0865
     88  CZ         1.9550   47.9740   -5.3890 C.cat  84  ARG84       0.5346
     89  NH1        2.6980   46.8900   -5.5830 N.pl3  84  ARG84       0.1354
     90  NH2        2.0110   48.6130   -4.2280 N.pl3  84  ARG84       0.1354
     91  N         -4.6010   54.4040    0.6410 N.3   111  ALA111     -0.1231
     92  CA        -3.6070   53.5140    0.0640 C.3   111  ALA111      0.1694
     93  C         -2.7180   52.9630    1.1620 C.2   111  ALA111      0.2593
     94  O         -2.8070   53.4110    2.3050 O.2   111  ALA111     -0.2718
     95  CB        -2.7790   54.2620   -0.9720 C.3   111  ALA111      0.0304
     96  N         -1.8980   51.9720    0.8330 N.am  112  THR112     -0.1939
     97  CA        -1.0140   51.3930    1.8270 C.3   112  THR112      0.2028
     98  C          0.0640   52.4130    2.1790 C.2   112  THR112      0.2642
     99  O          0.4090   52.5730    3.3430 O.2   112  THR112     -0.2714
    100  CB        -0.3300   50.0990    1.3150 C.3   112  THR112      0.1808
    101  OG1        0.4940   50.4100    0.1880 O.3   112  THR112     -0.2208
    102  CG2       -1.3680   49.0480    0.9160 C.3   112  THR112      0.0379
    103  N          0.5920   53.1080    1.1760 N.am  113  ASN113     -0.1957
    104  CA         1.6420   54.1030    1.4030 C.3   113  ASN113      0.1819
    105  C          2.6230   53.6020    2.4650 C.2   113  ASN113      0.2621
    106  O          2.9910   54.3340    3.3820 O.2   113  ASN113     -0.2715
    107  CB         1.0150   55.4200    1.8570 C.3   113  ASN113      0.1195
    108  CG         0.0440   55.9800    0.8400 C.2   113  ASN113      0.2630
    109  OD1        0.3980   56.1960   -0.3130 O.2   113  ASN113     -0.2716
    110  ND2       -1.1870   56.2200    1.2640 N.am  113  ASN113     -0.0877
    111  N          3.0540   52.3540    2.3130 N.am  114  THR114     -0.1951
    112  CA         3.9540   51.7130    3.2620 C.3   114  THR114      0.1897
    113  C          5.4470   51.9980    3.1310 C.2   114  THR114      0.2313
    114  O          6.2510   51.4400    3.8770 O.2   114  THR114     -0.2863
    115  CB         3.7610   50.1960    3.2160 C.3   114  THR114      0.1794
    116  OG1        3.7510   49.7680    1.8500 O.3   114  THR114     -0.2208
    117  CG2        2.4500   49.8010    3.8830 C.3   114  THR114      0.0378
    118  N          7.1900   56.5620   -1.2360 N.3   118  ARG118     -0.1245
    119  CA         5.8340   56.9440   -1.6290 C.3   118  ARG118      0.1563
    120  C          5.3670   58.1390   -0.8180 C.2   118  ARG118      0.2260
    121  O          4.8150   59.0920   -1.3640 O.2   118  ARG118     -0.2867
    122  CB         4.8540   55.7820   -1.4260 C.3   118  ARG118      0.0307
    123  CG         3.3830   56.1840   -1.5420 C.3   118  ARG118      0.0489
    124  CD         2.9780   56.5360   -2.9660 C.3   118  ARG118      0.2205
    125  NE         2.6090   55.3580   -3.7480 N.pl3 118  ARG118     -0.0865
    126  CZ         1.5070   54.6370   -3.5530 C.cat 118  ARG118      0.5346
    127  NH1        0.6440   54.9620   -2.6010 N.pl3 118  ARG118      0.1354
    128  NH2        1.2730   53.5820   -4.3140 N.pl3 118  ARG118      0.1354
    129  N        -12.9410   41.3530    2.5380 N.3   154  LYS154     -0.1245
    130  CA       -12.0950   40.9820    1.4020 C.3   154  LYS154      0.1561
    131  C        -12.6790   39.8770    0.5290 C.2   154  LYS154      0.2260
    132  O        -12.8880   40.0600   -0.6690 O.2   154  LYS154     -0.2867
    133  CB       -10.6940   40.5900    1.9010 C.3   154  LYS154      0.0271
    134  CG        -9.9670   41.6810    2.6860 C.3   154  LYS154      0.0035
    135  CD        -9.8770   42.9680    1.8960 C.3   154  LYS154      0.0206
    136  CE        -9.4100   44.1110    2.7610 C.3   154  LYS154      0.1093
    137  NZ        -9.3630   45.3550    1.9550 N.3   154  LYS154     -0.1314
    138  N         -5.1060   36.6260   -0.5120 N.3   172  PHE172     -0.1241
    139  CA        -4.9340   37.8750    0.2220 C.3   172  PHE172      0.1605
    140  C         -3.7560   37.7780    1.1920 C.2   172  PHE172      0.2264
    141  O         -3.0430   38.7550    1.4290 O.2   172  PHE172     -0.2867
    142  CB        -6.2030   38.2360    0.9940 C.3   172  PHE172      0.0534
    143  CG        -6.3750   39.7070    1.1900 C.ar  172  PHE172     -0.0203
    144  CD1       -6.8340   40.5030    0.1500 C.ar  172  PHE172     -0.0042
    145  CD2       -5.9940   40.3120    2.3810 C.ar  172  PHE172     -0.0042
    146  CE1       -6.9070   41.8790    0.2870 C.ar  172  PHE172     -0.0003
    147  CE2       -6.0620   41.6910    2.5310 C.ar  172  PHE172     -0.0003
    148  CZ        -6.5180   42.4770    1.4790 C.ar  172  PHE172     -0.0000
    149  N         -0.8410   38.3700   -0.7690 N.3   175  ARG175     -0.1245
    150  CA        -0.9140   39.7700   -1.1440 C.3   175  ARG175      0.1563
    151  C         -0.2910   40.6290   -0.0390 C.2   175  ARG175      0.2260
    152  O          0.4330   41.5810   -0.3190 O.2   175  ARG175     -0.2867
    153  CB        -2.3840   40.1200   -1.3530 C.3   175  ARG175      0.0307
    154  CG        -2.6790   41.3840   -2.1090 C.3   175  ARG175      0.0489
    155  CD        -4.1270   41.3390   -2.5440 C.3   175  ARG175      0.2205
    156  NE        -4.7320   42.6450   -2.7780 N.pl3 175  ARG175     -0.0865
    157  CZ        -5.9980   42.8030   -3.1500 C.cat 175  ARG175      0.5346
    158  NH1       -6.7730   41.7430   -3.3290 N.pl3 175  ARG175      0.1354
    159  NH2       -6.4960   44.0150   -3.3350 N.pl3 175  ARG175      0.1354
    160  N          3.8030   43.3620    0.5200 N.3   179  TYR179     -0.1241
    161  CA         4.1560   44.6620    1.0800 C.3   179  TYR179      0.1605
    162  C          5.0580   44.6170    2.2880 C.2   179  TYR179      0.2264
    163  O          5.7090   45.6050    2.6140 O.2   179  TYR179     -0.2867
    164  CB         2.9060   45.4370    1.4900 C.3   179  TYR179      0.0534
    165  CG         1.9990   45.8310    0.3590 C.ar  179  TYR179     -0.0201
    166  CD1        1.1300   44.9080   -0.2150 C.ar  179  TYR179     -0.0009
    167  CD2        2.0040   47.1310   -0.1360 C.ar  179  TYR179     -0.0009
    168  CE1        0.2870   45.2700   -1.2520 C.ar  179  TYR179      0.0417
    169  CE2        1.1660   47.5050   -1.1740 C.ar  179  TYR179      0.0417
    170  CZ         0.3060   46.5690   -1.7310 C.ar  179  TYR179      0.1957
    171  OH        -0.5250   46.9310   -2.7680 O.3   179  TYR179     -0.2866
@<TRIPOS>BOND
     1    50    49    2
     2    66    64   ar
     3    66    68   ar
     4    39    38    2
     5    49    48    1
     6    64    63   ar
     7    80    81    1
     8    68    67   ar
     9    38    37    1
    10    38    47   am
    11    48    47    1
    12    48    51    1
    13    37    36    1
    14    37    40    1
    15    63    62    1
    16    63    65   ar
    17    62    59    1
    18    81    82    1
    19    81    84    1
    20    67    65   ar
    21    59    58    1
    22    59    60    1
    23    51    52    1
    24    82    83    2
    25    41    40    1
    26    41    42    1
    27    61    60    2
    28    42    43    1
    29    52    53    1
    30    85    84    1
    31    85    86    1
    32    60    69   am
    33    53    54    1
    34    45    44    1
    35    86    87    1
    36    43    44    2
    37    69    70    1
    38    35    34    2
    39    44    46    1
    40    54    55    2
    41    28    27    2
    42    87    88    2
    43    34    33    1
    44    70    71    1
    45    70    73    1
    46    77    79   ar
    47    77    75   ar
    48    71    72    2
    49    30    29    1
    50    79    78   ar
    51    75    74   ar
    52    55    56    1
    53    55    57    1
    54    89    88    1
    55    27    26    1
    56    27    32   am
    57    78    76   ar
    58    88    90    1
    59    74    76   ar
    60    74    73    1
    61    20    19    2
    62    33    32    1
    63    26    29    1
    64    26    25    1
    65    29    31    1
    66   128   126    1
    67    19    25   am
    68    19    18    1
    69   125   126    2
    70   125   124    1
    71   126   127    1
    72   159   157    1
    73   158   157    1
    74    24    22   am
    75   157   156    2
    76    17    18    1
    77   124   123    1
    78    18    21    1
    79   156   155    1
    80   171   170    1
    81    21    22    1
    82   155   154    1
    83    22    23    2
    84   154   153    1
    85   170   168   ar
    86   170   169   ar
    87   119   122    1
    88   119   118    1
    89   119   120    1
    90   123   122    1
    91   121   120    2
    92   153   150    1
    93   168   166   ar
    94   169   167   ar
    95   150   149    1
    96   150   151    1
    97    95    92    1
    98   132   131    2
    99   138   139    1
   100   152   151    2
   101   109   108    2
   102   166   165   ar
   103   167   165   ar
   104    92    91    1
   105    92    93    1
   106   144   146   ar
   107   144   143   ar
   108   101   100    1
   109   139   142    1
   110   139   140    1
   111   146   148   ar
   112   165   164    1
   113   160   161    1
   114   131   130    1
   115    96    93   am
   116    96    97    1
   117   108   110   am
   118   108   107    1
   119   102   100    1
   120   142   143    1
   121   161   164    1
   122   161   162    1
   123    93    94    2
   124   103   104    1
   125   103    98   am
   126   143   145   ar
   127   140   141    2
   128   100    97    1
   129   130   133    1
   130   130   129    1
   131   104   107    1
   132   104   105    1
   133   148   147   ar
   134    97    98    1
   135   116   115    1
   136   135   134    1
   137   135   136    1
   138   133   134    1
   139   137   136    1
   140    98    99    2
   141   162   163    2
   142   111   105   am
   143   111   112    1
   144   145   147   ar
   145   105   106    2
   146     5     6    1
   147     5     2    1
   148     6     7    1
   149     7     1    1
   150   113   112    1
   151   113   114    2
   152   115   112    1
   153   115   117    1
   154    15    16    1
   155    15    14    1
   156     2     1    1
   157     2     3    1
   158    14    13    1
   159     3     4    2
   160    12    13    1
   161    12     9    1
   162    10    11    2
   163    10     9    1
   164     9     8    1
