@<TRIPOS>MOLECULE
tmp/2dwuB00.pdb
 119 114 0 0 0
SMALL
GASTEIGER

@<TRIPOS>ATOM
      1  N         -1.6250   13.1240   53.2660 N.3    10  ASP10      -0.1225
      2  CA        -0.9380   11.9210   53.7070 C.3    10  ASP10       0.1805
      3  C         -0.9330   11.9160   55.2210 C.2    10  ASP10       0.2598
      4  O         -1.2200   12.9240   55.8480 O.2    10  ASP10      -0.2718
      5  CB         0.5070   11.9460   53.1870 C.3    10  ASP10       0.1424
      6  CG         1.2840   10.7030   53.6120 C.2    10  ASP10       0.3668
      7  OD1        0.7910    9.5820   53.3470 O.co2  10  ASP10      -0.2456
      8  OD2        2.3650   10.8240   54.2260 O.co2  10  ASP10      -0.2456
      9  N         -0.5970   10.7790   55.8080 N.am   11  SER11      -0.1952
     10  CA        -0.5160   10.7020   57.2470 C.3    11  SER11       0.1924
     11  C          0.7330   11.3980   57.7990 C.2    11  SER11       0.2314
     12  O          0.7880   11.6580   58.9990 O.2    11  SER11      -0.2863
     13  CB        -0.5090    9.2360   57.6810 C.3    11  SER11       0.2116
     14  OG         0.6930    8.5820   57.2820 O.3    11  SER11      -0.2180
     15  N          0.4170   10.3170   62.9340 N.3    40  CYS40      -0.1221
     16  CA         1.0300    9.2270   62.1660 C.3    40  CYS40       0.1794
     17  C          1.5610    8.2650   63.2440 C.2    40  CYS40       0.2443
     18  O          2.0850    8.7240   64.2690 O.2    40  CYS40      -0.2733
     19  CB         2.1770    9.8050   61.3350 C.3    40  CYS40       0.0970
     20  SG         2.9500    8.6630   60.1710 S.3    40  CYS40      -0.0800
     21  N          1.4600    6.9400   63.0350 N.am   41  PRO41      -0.2718
     22  CA         0.9030    6.2250   61.8770 C.3    41  PRO41       0.1535
     23  C         -0.5990    5.9720   61.8520 C.2    41  PRO41       0.2599
     24  O         -1.2510    5.8540   62.8940 O.2    41  PRO41      -0.2715
     25  CB         1.6820    4.9060   61.8980 C.3    41  PRO41       0.0310
     26  CG         1.7600    4.6330   63.3740 C.3    41  PRO41       0.0237
     27  CD         2.1210    5.9870   63.9590 C.3    41  PRO41       0.0939
     28  N         -1.1330    5.8940   60.6330 N.am   42  TYR42      -0.1960
     29  CA        -2.5280    5.5650   60.4130 C.3    42  TYR42       0.1771
     30  C         -2.6850    4.0530   60.2600 C.2    42  TYR42       0.2620
     31  O         -3.7710    3.4980   60.4550 O.2    42  TYR42      -0.2715
     32  CB        -3.0100    6.2010   59.1200 C.3    42  TYR42       0.0574
     33  CG        -3.3090    7.6760   59.1940 C.ar   42  TYR42      -0.0198
     34  CD1       -3.0130    8.4500   60.3350 C.ar   42  TYR42      -0.0009
     35  CD2       -3.9290    8.2870   58.1200 C.ar   42  TYR42      -0.0009
     36  CE1       -3.3630    9.8150   60.3840 C.ar   42  TYR42       0.0417
     37  CE2       -4.2680    9.6260   58.1530 C.ar   42  TYR42       0.0417
     38  CZ        -3.9940   10.3810   59.2720 C.ar   42  TYR42       0.1957
     39  OH        -4.4070   11.6940   59.2220 O.3    42  TYR42      -0.2866
     40  N         -1.5920    3.3870   59.9100 N.am   43  GLY43      -0.1954
     41  CA        -1.6490    1.9570   59.6550 C.3    43  GLY43       0.1869
     42  C         -2.3790    1.0990   60.6620 C.2    43  GLY43       0.2309
     43  O         -3.1930    0.2790   60.2830 O.2    43  GLY43      -0.2863
     44  N         -1.5790    8.6220   50.8030 N.3    73  CYS73      -0.1221
     45  CA        -1.4260    7.5680   51.8100 C.3    73  CYS73       0.1808
     46  C         -2.2600    6.3430   51.4360 C.2    73  CYS73       0.2601
     47  O         -3.4630    6.4660   51.2610 O.2    73  CYS73      -0.2717
     48  CB        -1.9020    8.1310   53.1530 C.3    73  CYS73       0.0970
     49  SG        -1.8400    6.9790   54.5250 S.3    73  CYS73      -0.0800
     50  N         -1.6140    5.1760   51.3160 N.am   74  ASN74      -0.1960
     51  CA        -2.3470    3.9650   50.9580 C.3    74  ASN74       0.1819
     52  C         -3.3450    3.5880   52.0500 C.2    74  ASN74       0.2621
     53  O         -4.4340    3.1040   51.7370 O.2    74  ASN74      -0.2715
     54  CB        -1.3690    2.7930   50.7060 C.3    74  ASN74       0.1195
     55  CG        -0.4210    3.0690   49.5390 C.2    74  ASN74       0.2630
     56  OD1       -0.5550    2.4930   48.4120 O.2    74  ASN74      -0.2716
     57  ND2        0.5470    3.9070   49.7770 N.am   74  ASN74      -0.0877
     58  N         -2.9760    3.7950   53.3220 N.am   75  THR75      -0.1951
     59  CA        -3.8680    3.4780   54.4500 C.3    75  THR75       0.1897
     60  C         -5.1110    4.3710   54.4210 C.2    75  THR75       0.2313
     61  O         -6.2490    3.9060   54.5970 O.2    75  THR75      -0.2863
     62  CB        -3.1260    3.6810   55.7960 C.3    75  THR75       0.1794
     63  OG1       -1.9590    2.8430   55.8090 O.3    75  THR75      -0.2208
     64  CG2       -4.0290    3.3230   56.9770 C.3    75  THR75       0.0378
     65  N          0.4620   -1.5500   55.0200 N.3   117  THR117     -0.1218
     66  CA         0.1450   -1.5460   56.4530 C.3   117  THR117      0.1862
     67  C         -0.9910   -2.5070   56.7560 C.2   117  THR117      0.2287
     68  O         -1.6790   -2.9860   55.8650 O.2   117  THR117     -0.2866
     69  CB        -0.3700   -0.1660   56.9270 C.3   117  THR117      0.1770
     70  OG1       -1.6030    0.1250   56.2360 O.3   117  THR117     -0.2211
     71  CG2        0.6550    0.9340   56.6770 C.3   117  THR117      0.0375
     72  N         -4.2230   -1.1280   55.3530 N.3   120  THR120     -0.1218
     73  CA        -4.3280   -1.2710   53.9020 C.3   120  THR120      0.1862
     74  C         -4.6520   -2.6920   53.5040 C.2   120  THR120      0.2287
     75  O         -5.5620   -2.9300   52.7030 O.2   120  THR120     -0.2866
     76  CB        -3.0330   -0.8370   53.2300 C.3   120  THR120      0.1770
     77  OG1       -2.8390    0.5550   53.4850 O.3   120  THR120     -0.2211
     78  CG2       -3.0860   -1.0820   51.7200 C.3   120  THR120      0.0375
     79  N          7.4080    0.7410   57.5320 N.3   148  ALA148     -0.1245
     80  CA         7.3620    2.2040   57.4810 C.3   148  ALA148      0.1562
     81  C          8.1880    2.8230   58.6190 C.2   148  ALA148      0.2260
     82  O          8.9300    3.8000   58.4070 O.2   148  ALA148     -0.2867
     83  CB         5.8950    2.6990   57.5300 C.3   148  ALA148      0.0290
     84  N         11.4740    5.4390   58.4290 N.3   152  GLU152     -0.1245
     85  CA        11.6180    6.7410   59.0840 C.3   152  GLU152      0.1567
     86  C         12.6530    6.8150   60.1980 C.2   152  GLU152      0.2260
     87  O         13.2400    7.8790   60.4320 O.2   152  GLU152     -0.2867
     88  CB        10.2780    7.1920   59.6620 C.3   152  GLU152      0.0388
     89  CG         9.3470    7.7730   58.6380 C.3   152  GLU152      0.1160
     90  CD         8.1410    8.4450   59.2680 C.2   152  GLU152      0.3649
     91  OE1        8.3280    9.2500   60.2180 O.co2 152  GLU152     -0.2457
     92  OE2        7.0020    8.1840   58.8200 O.co2 152  GLU152     -0.2457
     93  N          2.5270   -1.1550   48.2940 N.3   183  GLY183     -0.1210
     94  CA         1.3150   -0.5160   48.7740 C.3   183  GLY183      0.1956
     95  C          1.4180    0.3430   50.0220 C.2   183  GLY183      0.2612
     96  O          0.5280    0.3170   50.8680 O.2   183  GLY183     -0.2717
     97  N          2.4800    1.1300   50.0840 N.am  184  CYS184     -0.1956
     98  CA         2.7260    2.0140   51.2190 C.3   184  CYS184      0.1843
     99  C          3.6590    3.1240   50.7210 C.2   184  CYS184      0.2626
    100  O          4.5790    2.8670   49.9430 O.2   184  CYS184     -0.2714
    101  CB         3.4080    1.2370   52.3450 C.3   184  CYS184      0.0997
    102  SG         3.8480    2.2580   53.7950 S.3   184  CYS184     -0.0797
    103  N          3.4180    4.3440   51.2040 N.am  185  THR185     -0.1936
    104  CA         4.2010    5.5110   50.8160 C.3   185  THR185      0.2028
    105  C          5.6920    5.3630   51.0630 C.2   185  THR185      0.2642
    106  O          6.4980    5.9310   50.3370 O.2   185  THR185     -0.2714
    107  CB         3.7890    6.7710   51.6310 C.3   185  THR185      0.1808
    108  OG1        3.7550    6.4450   53.0250 O.3   185  THR185     -0.2208
    109  CG2        2.4260    7.2990   51.1900 C.3   185  THR185      0.0379
    110  N          6.0610    4.6210   52.1050 N.am  186  HIS186     -0.1973
    111  CA         7.4660    4.5490   52.4610 C.3   186  HIS186      0.1656
    112  C          8.2850    3.5150   51.7320 C.2   186  HIS186      0.2291
    113  O          9.5160    3.6140   51.6940 O.2   186  HIS186     -0.2864
    114  CB         7.6090    4.2380   53.9570 C.3   186  HIS186      0.0771
    115  CG         7.0940    5.3050   54.8720 C.ar  186  HIS186      0.0820
    116  ND1        5.8210    5.8280   54.7830 N.ar  186  HIS186     -0.2267
    117  CD2        7.6580    5.8780   55.9610 C.ar  186  HIS186      0.1154
    118  CE1        5.6200    6.6700   55.7850 C.ar  186  HIS186      0.1986
    119  NE2        6.7220    6.7160   56.5130 N.ar  186  HIS186     -0.2212
@<TRIPOS>BOND
     1    93    94    1
     2    56    55    2
     3    94    95    1
     4    55    57   am
     5    55    54    1
     6   100    99    2
     7    95    97   am
     8    95    96    2
     9    97    98    1
    10   106   105    2
    11    54    51    1
    12    99   103   am
    13    99    98    1
    14    44    45    1
    15   104   105    1
    16   104   103    1
    17   104   107    1
    18    51    50    1
    19    51    52    1
    20   105   110   am
    21   109   107    1
    22    98   101    1
    23    47    46    2
    24    50    46   am
    25    46    45    1
    26   107   108    1
    27   113   112    2
    28    78    76    1
    29   112   111    1
    30    53    52    2
    31    45    48    1
    32    52    58   am
    33   110   111    1
    34   101   102    1
    35   111   114    1
    36    75    74    2
    37    48    49    1
    38     5     6    1
    39     5     2    1
    40    76    77    1
    41    76    73    1
    42     1     2    1
    43    58    59    1
    44     7     6   ar
    45    74    73    1
    46     6     8   ar
    47     2     3    1
    48    73    72    1
    49   114   115    1
    50    60    59    1
    51    60    61    2
    52    59    62    1
    53   116   115   ar
    54   116   118   ar
    55   115   117   ar
    56    65    66    1
    57     3     9   am
    58     3     4    2
    59   118   119   ar
    60    62    63    1
    61    62    64    1
    62     9    10    1
    63    68    67    2
    64   117   119   ar
    65    70    69    1
    66    66    67    1
    67    66    69    1
    68    71    69    1
    69    10    13    1
    70    10    11    1
    71    14    13    1
    72    80    83    1
    73    80    79    1
    74    80    81    1
    75    11    12    2
    76    35    37   ar
    77    35    33   ar
    78    37    38   ar
    79    82    81    2
    80    84    85    1
    81    89    90    1
    82    89    88    1
    83    92    90   ar
    84    85    88    1
    85    85    86    1
    86    32    33    1
    87    32    29    1
    88    33    34   ar
    89    39    38    1
    90    90    91   ar
    91    38    36   ar
    92    41    40    1
    93    41    42    1
    94    40    30   am
    95    20    19    1
    96    86    87    2
    97    30    29    1
    98    30    31    2
    99    43    42    2
   100    34    36   ar
   101    29    28    1
   102    28    23   am
   103    19    16    1
   104    23    22    1
   105    23    24    2
   106    22    25    1
   107    22    21    1
   108    25    26    1
   109    16    15    1
   110    16    17    1
   111    21    17   am
   112    21    27    1
   113    17    18    2
   114    26    27    1
