@<TRIPOS>MOLECULE
tmp/2dx7A00.pdb
 120 113 0 0 0
SMALL
GASTEIGER

@<TRIPOS>ATOM
      1  N          2.3740    3.5550    4.8260 N.3    10  MET10      -0.1245
      2  CA         1.7560    4.2630    3.7080 C.3    10  MET10       0.1570
      3  C          0.2710    4.6170    3.9000 C.2    10  MET10       0.2261
      4  O         -0.5770    4.0600    3.2070 O.2    10  MET10      -0.2867
      5  CB         1.9010    3.4060    2.4340 C.3    10  MET10       0.0387
      6  CG         3.3300    2.9240    2.1340 C.3    10  MET10       0.0595
      7  SD         3.4540    1.8060    0.6860 S.3    10  MET10      -0.1393
      8  CE         3.2120    0.2130    1.4500 C.3    10  MET10       0.0692
      9  N          6.2560    8.0760   -2.4330 N.3    47  ASP47      -0.1225
     10  CA         4.8150    8.1240   -2.6490 C.3    47  ASP47       0.1805
     11  C          4.4110    7.3500   -3.8940 C.2    47  ASP47       0.2598
     12  O          4.9530    7.5600   -4.9810 O.2    47  ASP47      -0.2718
     13  CB         4.3160    9.5610   -2.7740 C.3    47  ASP47       0.1424
     14  CG         2.8050    9.6350   -2.7980 C.2    47  ASP47       0.3668
     15  OD1        2.1850    9.2780   -1.7800 O.co2  47  ASP47      -0.2456
     16  OD2        2.2330   10.0290   -3.8310 O.co2  47  ASP47      -0.2456
     17  N          3.4390    6.4630   -3.7250 N.am   48  ARG48      -0.1966
     18  CA         2.9430    5.6380   -4.8170 C.3    48  ARG48       0.1729
     19  C          2.2120    6.4360   -5.9150 C.2    48  ARG48       0.2616
     20  O          2.4670    6.2390   -7.1040 O.2    48  ARG48      -0.2715
     21  CB         2.0360    4.5450   -4.2400 C.3    48  ARG48       0.0348
     22  CG         2.7810    3.4810   -3.4060 C.3    48  ARG48       0.0492
     23  CD         3.6400    4.0920   -2.2840 C.3    48  ARG48       0.2205
     24  NE         2.8460    4.8440   -1.3110 N.pl3  48  ARG48      -0.0865
     25  CZ         3.3480    5.5250   -0.2790 C.cat  48  ARG48       0.5346
     26  NH1        4.6590    5.5680   -0.0660 N.pl3  48  ARG48       0.1354
     27  NH2        2.5310    6.1480    0.5630 N.pl3  48  ARG48       0.1354
     28  N          1.3230    7.3410   -5.5200 N.am   49  THR49      -0.1951
     29  CA         0.5800    8.1460   -6.4910 C.3    49  THR49       0.1897
     30  C          1.4950    9.0160   -7.3570 C.2    49  THR49       0.2313
     31  O          1.3350    9.0660   -8.5810 O.2    49  THR49      -0.2863
     32  CB        -0.4590    9.0480   -5.7920 C.3    49  THR49       0.1794
     33  OG1       -1.4770    8.2280   -5.1980 O.3    49  THR49      -0.2208
     34  CG2       -1.1050   10.0000   -6.7910 C.3    49  THR49       0.0378
     35  N         -2.2960   -0.1390    1.8440 N.3    82  ALA82      -0.1231
     36  CA        -2.0300    0.9150    0.8760 C.3    82  ALA82       0.1694
     37  C         -2.6280    0.4830   -0.4540 C.2    82  ALA82       0.2592
     38  O         -2.0440   -0.3260   -1.1720 O.2    82  ALA82      -0.2718
     39  CB        -0.5280    1.1260    0.7370 C.3    82  ALA82       0.0304
     40  N         -3.8020    1.0220   -0.7640 N.am   83  ASN83      -0.1960
     41  CA        -4.5140    0.7080   -2.0010 C.3    83  ASN83       0.1819
     42  C         -3.7360    1.0490   -3.2690 C.2    83  ASN83       0.2622
     43  O         -3.6720    0.2390   -4.1920 O.2    83  ASN83      -0.2715
     44  CB        -5.8610    1.4400   -2.0250 C.3    83  ASN83       0.1195
     45  CG        -6.8250    0.9280   -0.9690 C.2    83  ASN83       0.2630
     46  OD1       -7.5960   -0.0030   -1.2120 O.2    83  ASN83      -0.2716
     47  ND2       -6.7790    1.5280    0.2150 N.am   83  ASN83      -0.0877
     48  N         -3.1640    2.2500   -3.3210 N.am   84  THR84      -0.1937
     49  CA        -2.4000    2.6690   -4.4940 C.3    84  THR84       0.2028
     50  C         -1.2320    1.7240   -4.7530 C.2    84  THR84       0.2642
     51  O         -0.9370    1.3960   -5.9030 O.2    84  THR84      -0.2714
     52  CB        -1.8380    4.0910   -4.3320 C.3    84  THR84       0.1808
     53  OG1       -2.8510    4.9490   -3.7980 O.3    84  THR84      -0.2208
     54  CG2       -1.3910    4.6350   -5.6790 C.3    84  THR84       0.0379
     55  N         -0.5680    1.2970   -3.6800 N.am   85  ALA85      -0.1977
     56  CA         0.5670    0.3890   -3.7930 C.3    85  ALA85       0.1597
     57  C          0.1750   -0.9230   -4.4680 C.2    85  ALA85       0.2287
     58  O          1.0330   -1.6300   -4.9960 O.2    85  ALA85      -0.2864
     59  CB         1.1590    0.1040   -2.4060 C.3    85  ALA85       0.0319
     60  N         -7.0100    7.6120   -4.2160 N.3   124  THR124     -0.1218
     61  CA        -6.0480    8.5760   -4.7330 C.3   124  THR124      0.1862
     62  C         -6.1950    8.6000   -6.2450 C.2   124  THR124      0.2287
     63  O         -6.7210    7.6600   -6.8420 O.2   124  THR124     -0.2866
     64  CB        -4.5880    8.1800   -4.4490 C.3   124  THR124      0.1770
     65  OG1       -4.3290    6.8940   -5.0240 O.3   124  THR124     -0.2211
     66  CG2       -4.3010    8.1630   -2.9520 C.3   124  THR124      0.0375
     67  N         -4.4470    5.6490   -7.7320 N.3   127  THR127     -0.1218
     68  CA        -5.2110    4.4040   -7.7770 C.3   127  THR127      0.1862
     69  C         -6.1640    4.4140   -8.9720 C.2   127  THR127      0.2287
     70  O         -6.2780    3.4250   -9.7010 O.2   127  THR127     -0.2866
     71  CB        -6.0270    4.2170   -6.4750 C.3   127  THR127      0.1770
     72  OG1       -5.1360    3.8810   -5.4030 O.3   127  THR127     -0.2211
     73  CG2       -7.0730    3.1220   -6.6330 C.3   127  THR127      0.0375
     74  N         -3.8770   13.9260    1.4870 N.3   160  TYR160     -0.1241
     75  CA        -2.5470   14.4990    1.6920 C.3   160  TYR160      0.1605
     76  C         -2.4440   15.7080    2.6260 C.2   160  TYR160      0.2264
     77  O         -1.6530   15.6900    3.5710 O.2   160  TYR160     -0.2867
     78  CB        -1.9350   14.8220    0.3280 C.3   160  TYR160      0.0534
     79  CG        -1.5640   13.5800   -0.4630 C.ar  160  TYR160     -0.0201
     80  CD1       -0.2690   13.0510   -0.4090 C.ar  160  TYR160     -0.0009
     81  CD2       -2.5100   12.9270   -1.2590 C.ar  160  TYR160     -0.0009
     82  CE1        0.0760   11.9010   -1.1340 C.ar  160  TYR160      0.0417
     83  CE2       -2.1760   11.7770   -1.9850 C.ar  160  TYR160      0.0417
     84  CZ        -0.8820   11.2730   -1.9190 C.ar  160  TYR160      0.1957
     85  OH        -0.5490   10.1490   -2.6490 O.3   160  TYR160     -0.2866
     86  N         -2.7070   12.4270    6.0070 N.3   164  LYS164     -0.1245
     87  CA        -1.2580   12.2160    6.0100 C.3   164  LYS164      0.1561
     88  C         -0.4560   13.3220    6.6990 C.2   164  LYS164      0.2260
     89  O          0.6790   13.0950    7.1140 O.2   164  LYS164     -0.2867
     90  CB        -0.7370   12.0250    4.5790 C.3   164  LYS164      0.0271
     91  CG        -1.2110   10.7340    3.9060 C.3   164  LYS164      0.0035
     92  CD        -0.6300   10.5910    2.5020 C.3   164  LYS164      0.0206
     93  CE        -1.0720    9.2870    1.8230 C.3   164  LYS164      0.1093
     94  NZ        -0.4770    8.0680    2.4530 N.3   164  LYS164     -0.1314
     95  N        -11.5780    3.4770   -0.8250 N.3   193  GLY193     -0.1210
     96  CA       -10.4250    3.0480   -1.6070 C.3   193  GLY193      0.1956
     97  C         -9.0380    3.5880   -1.3040 C.2   193  GLY193      0.2612
     98  O         -8.1280    3.4230   -2.1130 O.2   193  GLY193     -0.2717
     99  N         -8.8820    4.2440   -0.1600 N.am  194  CYS194     -0.1956
    100  CA        -7.6050    4.8100    0.2720 C.3   194  CYS194      0.1843
    101  C         -7.5920    4.5550    1.7740 C.2   194  CYS194      0.2626
    102  O         -8.5650    4.8700    2.4560 O.2   194  CYS194     -0.2714
    103  CB        -7.5460    6.3160    0.0010 C.3   194  CYS194      0.0997
    104  SG        -6.1090    7.1540    0.7630 S.3   194  CYS194     -0.0797
    105  N         -6.5100    3.9890    2.2950 N.am  195  THR195     -0.1936
    106  CA        -6.4570    3.7150    3.7280 C.3   195  THR195      0.2028
    107  C         -6.6160    4.9470    4.6140 C.2   195  THR195      0.2642
    108  O         -7.0310    4.8290    5.7670 O.2   195  THR195     -0.2714
    109  CB        -5.1740    2.9270    4.1170 C.3   195  THR195      0.1808
    110  OG1       -4.0120    3.5770    3.5920 O.3   195  THR195     -0.2208
    111  CG2       -5.2490    1.5010    3.5640 C.3   195  THR195      0.0379
    112  N         -6.2960    6.1300    4.0940 N.am  196  GLU196     -0.1976
    113  CA        -6.4470    7.3300    4.9110 C.3   196  GLU196      0.1602
    114  C         -7.9480    7.6260    5.0330 C.2   196  GLU196      0.2287
    115  O         -8.3910    8.2440    6.0020 O.2   196  GLU196     -0.2864
    116  CB        -5.7160    8.5270    4.2960 C.3   196  GLU196      0.0415
    117  CG        -4.2370    8.6500    4.6890 C.3   196  GLU196      0.1163
    118  CD        -3.3270    7.7240    3.9120 C.2   196  GLU196      0.3649
    119  OE1       -3.6500    7.4190    2.7440 O.co2 196  GLU196     -0.2457
    120  OE2       -2.2750    7.3210    4.4580 O.co2 196  GLU196     -0.2457
@<TRIPOS>BOND
     1    70    69    2
     2    69    68    1
     3    31    30    2
     4    68    67    1
     5    68    71    1
     6    30    29    1
     7    20    19    2
     8    63    62    2
     9    34    32    1
    10    73    71    1
    11    29    32    1
    12    29    28    1
    13    71    72    1
    14    62    61    1
    15    19    28   am
    16    19    18    1
    17    51    50    2
    18    32    33    1
    19    54    52    1
    20    65    64    1
    21    58    57    2
    22    12    11    2
    23    18    21    1
    24    18    17    1
    25    50    49    1
    26    50    55   am
    27    61    64    1
    28    61    60    1
    29    49    52    1
    30    49    48    1
    31    57    56    1
    32    64    66    1
    33    52    53    1
    34    21    22    1
    35    43    42    2
    36    11    17   am
    37    11    10    1
    38    16    14   ar
    39    56    55    1
    40    56    59    1
    41    22    23    1
    42    48    42   am
    43    42    41    1
    44    14    13    1
    45    14    15   ar
    46    13    10    1
    47    85    84    1
    48    10     9    1
    49    23    24    1
    50    98    97    2
    51    44    41    1
    52    44    45    1
    53    41    40    1
    54    83    84   ar
    55    83    81   ar
    56    84    82   ar
    57    96    97    1
    58    96    95    1
    59    24    25    2
    60    97    99   am
    61    81    79   ar
    62    46    45    2
    63    38    37    2
    64    82    80   ar
    65    45    47   am
    66    40    37   am
    67    79    80   ar
    68    79    78    1
    69    37    36    1
    70    25    26    1
    71    25    27    1
    72    99   100    1
    73   103   100    1
    74   103   104    1
    75   100   101    1
    76    78    75    1
    77     7     8    1
    78     7     6    1
    79    39    36    1
    80    36    35    1
    81    74    75    1
    82    75    76    1
    83   101   105   am
    84   101   102    2
    85    93    94    1
    86    93    92    1
    87     6     5    1
    88   105   106    1
    89     5     2    1
    90    92    91    1
    91    76    77    2
    92   119   118   ar
    93     4     3    2
    94   111   109    1
    95   110   109    1
    96     2     3    1
    97     2     1    1
    98   106   109    1
    99   106   107    1
   100    91    90    1
   101   118   120   ar
   102   118   117    1
   103   112   107   am
   104   112   113    1
   105   116   117    1
   106   116   113    1
   107    90    87    1
   108   107   108    2
   109   113   114    1
   110   114   115    2
   111    86    87    1
   112    87    88    1
   113    88    89    2
