@<TRIPOS>MOLECULE
tmp/2dxdA00.pdb
 148 139 0 0 0
SMALL
GASTEIGER

@<TRIPOS>ATOM
      1  N         -3.4570   19.4160   16.6230 N.3    11  LYS11      -0.1245
      2  CA        -4.6700   20.2160   16.4900 C.3    11  LYS11       0.1561
      3  C         -5.6940   20.1440   17.6200 C.2    11  LYS11       0.2260
      4  O         -5.6520   19.2450   18.4590 O.2    11  LYS11      -0.2867
      5  CB        -5.3180   19.8910   15.1390 C.3    11  LYS11       0.0271
      6  CG        -4.4050   20.2410   13.9590 C.3    11  LYS11       0.0035
      7  CD        -5.0280   19.9010   12.6090 C.3    11  LYS11       0.0206
      8  CE        -4.1240   20.3530   11.4610 C.3    11  LYS11       0.1093
      9  NZ        -4.7100   20.0590   10.1160 N.3    11  LYS11      -0.1314
     10  N         -1.5650   29.3290    7.2790 N.3    51  TYR51      -0.1241
     11  CA        -2.2630   28.7690    6.1240 C.3    51  TYR51       0.1605
     12  C         -2.4350   29.7650    4.9740 C.2    51  TYR51       0.2264
     13  O         -3.3780   29.6560    4.1880 O.2    51  TYR51      -0.2867
     14  CB        -3.6400   28.2530    6.5520 C.3    51  TYR51       0.0534
     15  CG        -3.6080   27.0000    7.4050 C.ar   51  TYR51      -0.0201
     16  CD1       -2.9610   25.8490    6.9600 C.ar   51  TYR51      -0.0009
     17  CD2       -4.2720   26.9490    8.6310 C.ar   51  TYR51      -0.0009
     18  CE1       -2.9810   24.6740    7.7090 C.ar   51  TYR51       0.0417
     19  CE2       -4.3000   25.7770    9.3900 C.ar   51  TYR51       0.0417
     20  CZ        -3.6550   24.6450    8.9200 C.ar   51  TYR51       0.1957
     21  OH        -3.7000   23.4740    9.6430 O.3    51  TYR51      -0.2866
     22  N         -1.2440   30.0410    2.1010 N.3    53  GLU53      -0.1231
     23  CA        -1.3510   29.4850    0.7520 C.3    53  GLU53       0.1699
     24  C         -2.7730   29.0780    0.3740 C.2    53  GLU53       0.2592
     25  O         -3.0790   28.9060   -0.8060 O.2    53  GLU53      -0.2718
     26  CB        -0.4310   28.2730    0.6070 C.3    53  GLU53       0.0402
     27  CG        -0.8160   27.1100    1.4980 C.3    53  GLU53       0.1161
     28  CD         0.1980   25.9880    1.4610 C.2    53  GLU53       0.3649
     29  OE1        0.2730   25.2790    0.4320 O.co2  53  GLU53      -0.2457
     30  OE2        0.9250   25.8230    2.4630 O.co2  53  GLU53      -0.2457
     31  N         -3.6380   28.9250    1.3730 N.am   54  HIS54      -0.1976
     32  CA        -5.0220   28.5240    1.1310 C.3    54  HIS54       0.1656
     33  C         -5.9820   29.6990    1.2730 C.2    54  HIS54       0.2291
     34  O         -7.2000   29.5210    1.2950 O.2    54  HIS54      -0.2864
     35  CB        -5.4230   27.4270    2.1180 C.3    54  HIS54       0.0771
     36  CG        -4.4290   26.3130    2.2210 C.ar   54  HIS54       0.0820
     37  ND1       -4.0640   25.5370    1.1420 N.ar   54  HIS54      -0.2267
     38  CD2       -3.7240   25.8450    3.2770 C.ar   54  HIS54       0.1154
     39  CE1       -3.1760   24.6390    1.5290 C.ar   54  HIS54       0.1986
     40  NE2       -2.9520   24.8040    2.8210 N.ar   54  HIS54      -0.2212
     41  N         -8.6930   29.4190   -1.1780 N.3    57  LYS57      -0.1245
     42  CA        -9.3910   28.1440   -1.3000 C.3    57  LYS57       0.1561
     43  C        -10.7210   28.1730   -0.5430 C.2    57  LYS57       0.2260
     44  O        -10.8930   28.9470    0.3980 O.2    57  LYS57      -0.2867
     45  CB        -8.4970   27.0090   -0.7950 C.3    57  LYS57       0.0271
     46  CG        -7.2200   26.8560   -1.6130 C.3    57  LYS57       0.0035
     47  CD        -6.3660   25.6950   -1.1370 C.3    57  LYS57       0.0206
     48  CE        -5.0820   25.5960   -1.9500 C.3    57  LYS57       0.1093
     49  NZ        -4.2080   24.4860   -1.4790 N.3    57  LYS57      -0.1314
     50  N        -12.2240   25.9970    1.6140 N.3    59  PHE59      -0.1241
     51  CA       -12.1690   25.5900    3.0130 C.3    59  PHE59       0.1605
     52  C        -11.4020   26.5130    3.9630 C.2    59  PHE59       0.2264
     53  O        -11.2750   26.2020    5.1460 O.2    59  PHE59      -0.2867
     54  CB       -11.5770   24.1800    3.1010 C.3    59  PHE59       0.0534
     55  CG       -10.1860   24.0680    2.5280 C.ar   59  PHE59      -0.0203
     56  CD1       -9.0990   24.6450    3.1790 C.ar   59  PHE59      -0.0042
     57  CD2       -9.9660   23.3940    1.3300 C.ar   59  PHE59      -0.0042
     58  CE1       -7.8140   24.5550    2.6490 C.ar   59  PHE59      -0.0003
     59  CE2       -8.6840   23.2970    0.7890 C.ar   59  PHE59      -0.0003
     60  CZ        -7.6050   23.8790    1.4510 C.ar   59  PHE59      -0.0000
     61  N        -11.1970   26.2900    8.0690 N.3    63  LEU63      -0.1245
     62  CA        -9.9000   25.8110    8.5220 C.3    63  LEU63       0.1561
     63  C         -9.3700   26.7070    9.6320 C.2    63  LEU63       0.2260
     64  O         -8.7930   26.2220   10.6030 O.2    63  LEU63      -0.2867
     65  CB        -8.9090   25.7760    7.3580 C.3    63  LEU63       0.0270
     66  CG        -7.4680   25.3900    7.7060 C.3    63  LEU63       0.0019
     67  CD1       -7.4360   24.0240    8.3850 C.3    63  LEU63       0.0001
     68  CD2       -6.6330   25.3800    6.4360 C.3    63  LEU63       0.0001
     69  N        -11.3010   26.0930   12.8200 N.3    66  TYR66      -0.1241
     70  CA       -10.8590   24.8310   13.4020 C.3    66  TYR66       0.1605
     71  C         -9.5360   24.9160   14.1540 C.2    66  TYR66       0.2264
     72  O         -9.4520   24.5140   15.3130 O.2    66  TYR66      -0.2867
     73  CB       -10.7930   23.7820   12.2820 C.3    66  TYR66       0.0534
     74  CG       -10.0220   22.5080   12.5680 C.ar   66  TYR66      -0.0201
     75  CD1      -10.1870   21.8040   13.7610 C.ar   66  TYR66      -0.0009
     76  CD2       -9.1660   21.9760   11.6030 C.ar   66  TYR66      -0.0009
     77  CE1       -9.5150   20.5920   13.9820 C.ar   66  TYR66       0.0417
     78  CE2       -8.4970   20.7740   11.8100 C.ar   66  TYR66       0.0417
     79  CZ        -8.6750   20.0860   12.9970 C.ar   66  TYR66       0.1957
     80  OH        -8.0190   18.8890   13.1730 O.3    66  TYR66      -0.2866
     81  N          5.3750   13.1130    7.5070 N.3    87  ARG87      -0.1245
     82  CA         4.1980   13.1270    6.6360 C.3    87  ARG87       0.1563
     83  C          3.6990   11.6950    6.4390 C.2    87  ARG87       0.2260
     84  O          2.4920   11.4480    6.3740 O.2    87  ARG87      -0.2867
     85  CB         4.5290   13.7320    5.2650 C.3    87  ARG87       0.0307
     86  CG         4.8920   15.2070    5.2920 C.3    87  ARG87       0.0489
     87  CD         5.0120   15.7590    3.8730 C.3    87  ARG87       0.2205
     88  NE         3.7050   15.9460    3.2450 N.pl3  87  ARG87      -0.0865
     89  CZ         3.5200   16.1270    1.9400 C.cat  87  ARG87       0.5346
     90  NH1        4.5570   16.1400    1.1150 N.pl3  87  ARG87       0.1354
     91  NH2        2.2960   16.3040    1.4600 N.pl3  87  ARG87       0.1354
     92  N         -4.5380   12.9970    4.2780 N.3    93  THR93      -0.1218
     93  CA        -5.1500   14.2270    4.7800 C.3    93  THR93       0.1862
     94  C         -6.5240   14.0050    5.4140 C.2    93  THR93       0.2287
     95  O         -6.8130   14.5520    6.4790 O.2    93  THR93      -0.2866
     96  CB        -5.2850   15.2710    3.6550 C.3    93  THR93       0.1770
     97  OG1       -3.9870   15.5700    3.1260 O.3    93  THR93      -0.2211
     98  CG2       -5.9050   16.5520    4.1910 C.3    93  THR93       0.0375
     99  N         -3.3150    9.5910   11.6250 N.3   104  ARG104     -0.1245
    100  CA        -4.6780    9.8990   11.2160 C.3   104  ARG104      0.1563
    101  C         -5.4950    8.6300   11.0350 C.2   104  ARG104      0.2260
    102  O         -6.6850    8.5990   11.3520 O.2   104  ARG104     -0.2867
    103  CB        -4.6700   10.7240    9.9290 C.3   104  ARG104      0.0307
    104  CG        -4.1590   12.1330   10.1580 C.3   104  ARG104      0.0489
    105  CD        -3.8560   12.8470    8.8610 C.3   104  ARG104      0.2205
    106  NE        -3.3890   14.2100    9.0970 N.pl3 104  ARG104     -0.0865
    107  CZ        -2.7120   14.9310    8.2090 C.cat 104  ARG104      0.5346
    108  NH1       -2.4170   14.4150    7.0220 N.pl3 104  ARG104      0.1354
    109  NH2       -2.3340   16.1700    8.5030 N.pl3 104  ARG104      0.1354
    110  N        -14.7960   21.5540    8.9350 N.3   114  ALA114     -0.1231
    111  CA       -13.4210   21.3780    8.4820 C.3   114  ALA114      0.1694
    112  C        -13.0710   19.8930    8.5590 C.2   114  ALA114      0.2591
    113  O        -13.6920   19.1470    9.3110 O.2   114  ALA114     -0.2718
    114  CB       -12.4690   22.1870    9.3650 C.3   114  ALA114      0.0304
    115  N        -12.0850   19.4610    7.7800 N.am  115  ILE115     -0.1980
    116  CA       -11.6860   18.0580    7.8020 C.3   115  ILE115      0.1595
    117  C        -10.7230   17.8490    8.9690 C.2   115  ILE115      0.2287
    118  O         -9.5050   17.8810    8.7980 O.2   115  ILE115     -0.2864
    119  CB       -11.0000   17.6480    6.4760 C.3   115  ILE115      0.0276
    120  CG1      -11.9270   17.9560    5.2960 C.3   115  ILE115      0.0022
    121  CG2      -10.6630   16.1570    6.4940 C.3   115  ILE115      0.0022
    122  CD1      -13.3050   17.3210    5.3980 C.3   115  ILE115      0.0001
    123  N         -8.2580   16.4710   11.2480 N.3   117  ASN117     -0.1240
    124  CA        -7.3250   15.3800   11.0180 C.3   117  ASN117      0.1653
    125  C         -6.1640   15.2230   11.9930 C.2   117  ASN117      0.2266
    126  O         -5.0480   14.8930   11.5900 O.2   117  ASN117     -0.2867
    127  CB        -6.8000   15.4360    9.5780 C.3   117  ASN117      0.1155
    128  CG        -6.1080   16.7390    9.2600 C.2   117  ASN117      0.2627
    129  OD1       -5.9120   17.5810   10.1350 O.2   117  ASN117     -0.2716
    130  ND2       -5.7250   16.9110    7.9990 N.am  117  ASN117     -0.0877
    131  N         -0.9850   18.5110   12.0870 N.3   120  HIS120     -0.1241
    132  CA        -0.5100   19.2120   10.9080 C.3   120  HIS120      0.1621
    133  C          0.9470   18.7790   10.8190 C.2   120  HIS120      0.2264
    134  O          1.5970   18.5900   11.8490 O.2   120  HIS120     -0.2867
    135  CB        -0.5210   20.7300   11.0920 C.3   120  HIS120      0.0745
    136  CG         0.3720   21.4500   10.1240 C.ar  120  HIS120      0.0817
    137  ND1       -0.0240   21.7820    8.8470 N.ar  120  HIS120     -0.2268
    138  CD2        1.6690   21.8310   10.2250 C.ar  120  HIS120      0.1154
    139  CE1        0.9880   22.3350    8.2010 C.ar  120  HIS120      0.1986
    140  NE2        2.0290   22.3760    9.0150 N.ar  120  HIS120     -0.2212
    141  N          4.7020   20.2240    4.8040 N.3   123  ASP123     -0.1239
    142  CA         4.7260   19.4390    3.5750 C.3   123  ASP123      0.1674
    143  C          6.0440   19.4580    2.8070 C.2   123  ASP123      0.2266
    144  O          6.1710   18.7790    1.7900 O.2   123  ASP123     -0.2867
    145  CB         3.5760   19.8470    2.6370 C.3   123  ASP123      0.1410
    146  CG         3.6680   21.2880    2.1640 C.2   123  ASP123      0.3668
    147  OD1        4.7710   21.8710    2.1860 O.co2 123  ASP123     -0.2456
    148  OD2        2.6230   21.8340    1.7420 O.co2 123  ASP123     -0.2456
@<TRIPOS>BOND
     1    48    49    1
     2    48    47    1
     3    46    47    1
     4    46    45    1
     5    42    41    1
     6    42    45    1
     7    42    43    1
     8    25    24    2
     9    43    44    2
    10    24    23    1
    11    24    31   am
    12    29    28   ar
    13    26    23    1
    14    26    27    1
    15    23    22    1
    16    59    57   ar
    17    59    60   ar
    18    90    89    1
    19    32    33    1
    20    32    31    1
    21    32    35    1
    22    37    39   ar
    23    37    36   ar
    24    33    34    2
    25    57    55   ar
    26    60    58   ar
    27    91    89    1
    28    28    27    1
    29    28    30   ar
    30    39    40   ar
    31    50    51    1
    32   148   146   ar
    33   144   143    2
    34    89    88    2
    35    35    36    1
    36   146   147   ar
    37   146   145    1
    38    36    38   ar
    39    55    54    1
    40    55    56   ar
    41   145   142    1
    42    58    56   ar
    43   143   142    1
    44    40    38   ar
    45    51    54    1
    46    51    52    1
    47    97    96    1
    48    88    87    1
    49   142   141    1
    50    96    98    1
    51    96    93    1
    52    87    86    1
    53    52    53    2
    54    13    12    2
    55    92    93    1
    56    93    94    1
    57    12    11    1
    58    85    86    1
    59    85    82    1
    60   120   122    1
    61   120   119    1
    62    94    95    2
    63    11    14    1
    64    11    10    1
    65    84    83    2
    66    68    66    1
    67    83    82    1
    68   119   121    1
    69   119   116    1
    70    14    15    1
    71    82    81    1
    72    16    15   ar
    73    16    18   ar
    74   108   107    1
    75    65    66    1
    76    65    62    1
    77    15    17   ar
    78    66    67    1
    79    18    20   ar
    80   115   116    1
    81   115   112   am
    82   116   117    1
    83   130   128   am
    84    61    62    1
    85   139   137   ar
    86   139   140   ar
    87   107   109    1
    88   107   106    2
    89   111   112    1
    90   111   110    1
    91   111   114    1
    92    62    63    1
    93   112   113    2
    94    17    19   ar
    95   118   117    2
    96   137   136   ar
    97   105   106    1
    98   105   104    1
    99    20    19   ar
   100    20    21    1
   101   140   138   ar
   102   128   127    1
   103   128   129    2
   104   127   124    1
   105    63    64    2
   106   103   104    1
   107   103   100    1
   108     9     8    1
   109   136   138   ar
   110   136   135    1
   111   133   132    1
   112   133   134    2
   113   132   135    1
   114   132   131    1
   115   124   123    1
   116   124   125    1
   117   101   100    1
   118   101   102    2
   119   100    99    1
   120     8     7    1
   121   126   125    2
   122    76    78   ar
   123    76    74   ar
   124    78    79   ar
   125    73    74    1
   126    73    70    1
   127    74    75   ar
   128     7     6    1
   129    69    70    1
   130    79    80    1
   131    79    77   ar
   132    70    71    1
   133    75    77   ar
   134     6     5    1
   135    71    72    2
   136     5     2    1
   137     2     1    1
   138     2     3    1
   139     3     4    2
