@<TRIPOS>MOLECULE
tmp/2dxeA00.pdb
 161 152 0 0 0
SMALL
GASTEIGER

@<TRIPOS>ATOM
      1  N         27.6200    1.8370    3.1080 N.3    10  LYS10      -0.1245
      2  CA        28.2490    0.5300    2.9610 C.3    10  LYS10       0.1561
      3  C         29.1470    0.0510    4.1000 C.2    10  LYS10       0.2260
      4  O         29.5630    0.8310    4.9560 O.2    10  LYS10      -0.2867
      5  CB        29.0050    0.5060    1.6310 C.3    10  LYS10       0.0271
      6  CG        28.0880    0.7840    0.4490 C.3    10  LYS10       0.0035
      7  CD        28.8160    0.6930   -0.8830 C.3    10  LYS10       0.0206
      8  CE        27.8660    0.9330   -2.0450 C.3    10  LYS10       0.1093
      9  NZ        28.5670    0.8120   -3.3610 N.3    10  LYS10      -0.1314
     10  N         21.0860   -5.3070   -6.3990 N.3    50  TYR50      -0.1241
     11  CA        22.0390   -5.1550   -7.4980 C.3    50  TYR50       0.1605
     12  C         21.7550   -6.0510   -8.7060 C.2    50  TYR50       0.2264
     13  O         22.6770   -6.4640   -9.4030 O.2    50  TYR50      -0.2867
     14  CB        23.4600   -5.4330   -6.9990 C.3    50  TYR50       0.0534
     15  CG        24.0500   -4.3360   -6.1420 C.ar   50  TYR50      -0.0201
     16  CD1       24.0800   -3.0160   -6.5930 C.ar   50  TYR50      -0.0009
     17  CD2       24.6240   -4.6240   -4.9020 C.ar   50  TYR50      -0.0009
     18  CE1       24.6730   -2.0080   -5.8340 C.ar   50  TYR50       0.0417
     19  CE2       25.2200   -3.6230   -4.1340 C.ar   50  TYR50       0.0417
     20  CZ        25.2430   -2.3200   -4.6080 C.ar   50  TYR50       0.1957
     21  OH        25.8540   -1.3320   -3.8690 O.3    50  TYR50      -0.2866
     22  N         20.8470   -5.4820  -11.6350 N.3    52  GLU52      -0.1231
     23  CA        21.3840   -4.9690  -12.8940 C.3    52  GLU52       0.1699
     24  C         22.8070   -5.4220  -13.1990 C.2    52  GLU52       0.2592
     25  O         23.2350   -5.3920  -14.3560 O.2    52  GLU52      -0.2718
     26  CB        21.3520   -3.4400  -12.8920 C.3    52  GLU52       0.0402
     27  CG        22.2620   -2.8100  -11.8500 C.3    52  GLU52       0.1161
     28  CD        22.1160   -1.3020  -11.7830 C.2    52  GLU52       0.3649
     29  OE1       22.5790   -0.6070  -12.7150 O.co2  52  GLU52      -0.2457
     30  OE2       21.5280   -0.8140  -10.7960 O.co2  52  GLU52      -0.2457
     31  N         23.5360   -5.8400  -12.1670 N.am   53  HIS53      -0.1976
     32  CA        24.9270   -6.2570  -12.3290 C.3    53  HIS53       0.1656
     33  C         25.1510   -7.7660  -12.3400 C.2    53  HIS53       0.2291
     34  O         26.2940   -8.2190  -12.3750 O.2    53  HIS53      -0.2864
     35  CB        25.7810   -5.6500  -11.2090 C.3    53  HIS53       0.0771
     36  CG        25.6670   -4.1610  -11.0970 C.ar   53  HIS53       0.0820
     37  ND1       25.9570   -3.3100  -12.1430 N.ar   53  HIS53      -0.2267
     38  CD2       25.3060   -3.3700  -10.0580 C.ar   53  HIS53       0.1154
     39  CE1       25.7800   -2.0600  -11.7530 C.ar   53  HIS53       0.1986
     40  NE2       25.3860   -2.0680  -10.4930 N.ar   53  HIS53      -0.2212
     41  N         27.8160   -9.2140  -14.6770 N.3    56  LYS56      -0.1245
     42  CA        29.0960   -8.5270  -14.7270 C.3    56  LYS56       0.1561
     43  C         30.1160   -9.3250  -13.9210 C.2    56  LYS56       0.2260
     44  O         29.7710   -9.9900  -12.9450 O.2    56  LYS56      -0.2867
     45  CB        28.9410   -7.1050  -14.1920 C.3    56  LYS56       0.0271
     46  CG        27.9540   -6.3080  -15.0290 C.3    56  LYS56       0.0035
     47  CD        27.8580   -4.8610  -14.6040 C.3    56  LYS56       0.0206
     48  CE        26.8360   -4.1280  -15.4530 C.3    56  LYS56       0.1093
     49  NZ        26.6510   -2.7240  -14.9920 N.3    56  LYS56      -0.1314
     50  N         32.2450   -8.5260  -11.7270 N.3    58  PHE58      -0.1241
     51  CA        32.4310   -8.1390  -10.3350 C.3    58  PHE58       0.1605
     52  C         31.2120   -8.3990   -9.4540 C.2    58  PHE58       0.2264
     53  O         31.2060   -8.0310   -8.2770 O.2    58  PHE58      -0.2867
     54  CB        32.8070   -6.6560  -10.2670 C.3    58  PHE58       0.0534
     55  CG        31.7550   -5.7290  -10.8250 C.ar   58  PHE58      -0.0203
     56  CD1       30.6310   -5.3930  -10.0780 C.ar   58  PHE58      -0.0042
     57  CD2       31.8890   -5.1940  -12.1050 C.ar   58  PHE58      -0.0042
     58  CE1       29.6560   -4.5390  -10.5910 C.ar   58  PHE58      -0.0003
     59  CE2       30.9190   -4.3400  -12.6260 C.ar   58  PHE58      -0.0003
     60  CZ        29.8010   -4.0110  -11.8670 C.ar   58  PHE58      -0.0000
     61  N         30.8720   -7.9470   -5.3920 N.3    62  LEU62      -0.1245
     62  CA        29.9990   -6.8700   -4.9390 C.3    62  LEU62       0.1561
     63  C         29.0220   -7.3780   -3.8860 C.2    62  LEU62       0.2260
     64  O         28.7530   -6.6960   -2.9000 O.2    62  LEU62      -0.2867
     65  CB        29.2290   -6.2760   -6.1220 C.3    62  LEU62       0.0270
     66  CG        28.1720   -5.2070   -5.8150 C.3    62  LEU62       0.0019
     67  CD1       28.8030   -4.0290   -5.0840 C.3    62  LEU62       0.0001
     68  CD2       27.5350   -4.7470   -7.1230 C.3    62  LEU62       0.0001
     69  N         30.8770   -7.8780   -0.6940 N.3    65  TYR65      -0.1241
     70  CA        31.1370   -6.5640   -0.1160 C.3    65  TYR65       0.1605
     71  C         29.9430   -5.9790    0.6350 C.2    65  TYR65       0.2264
     72  O         30.0500   -5.6730    1.8250 O.2    65  TYR65      -0.2867
     73  CB        31.6100   -5.6200   -1.2340 C.3    65  TYR65       0.0534
     74  CG        31.6310   -4.1270   -0.9420 C.ar   65  TYR65      -0.0201
     75  CD1       32.0950   -3.6240    0.2740 C.ar   65  TYR65      -0.0009
     76  CD2       31.2440   -3.2140   -1.9240 C.ar   65  TYR65      -0.0009
     77  CE1       32.1730   -2.2400    0.5020 C.ar   65  TYR65       0.0417
     78  CE2       31.3230   -1.8370   -1.7120 C.ar   65  TYR65       0.0417
     79  CZ        31.7860   -1.3570   -0.4980 C.ar   65  TYR65       0.1957
     80  OH        31.8540    0.0070   -0.3010 O.3    65  TYR65      -0.2866
     81  N         23.4500   11.9020   -5.9680 N.3    86  ARG86      -0.1245
     82  CA        24.4140   11.2680   -6.8660 C.3    86  ARG86       0.1563
     83  C         25.6070   12.2030   -7.0440 C.2    86  ARG86       0.2260
     84  O         26.7580   11.7650   -7.0780 O.2    86  ARG86      -0.2867
     85  CB        23.7680   10.9760   -8.2240 C.3    86  ARG86       0.0307
     86  CG        22.7080    9.8900   -8.1730 C.3    86  ARG86       0.0489
     87  CD        23.3270    8.5000   -8.1120 C.3    86  ARG86       0.2205
     88  NE        23.8640    8.0880   -9.4090 N.pl3  86  ARG86      -0.0865
     89  CZ        24.3960    6.8950   -9.6530 C.cat  86  ARG86       0.5346
     90  NH1       24.4680    5.9880   -8.6880 N.pl3  86  ARG86       0.1354
     91  NH2       24.8540    6.6070  -10.8650 N.pl3  86  ARG86       0.1354
     92  N         32.0360    6.6680   -9.2400 N.3    92  THR92      -0.1218
     93  CA        31.9560    5.2970   -8.7460 C.3    92  THR92       0.1862
     94  C         33.2640    4.8110   -8.1270 C.2    92  THR92       0.2287
     95  O         33.2640    4.2410   -7.0370 O.2    92  THR92      -0.2866
     96  CB        31.5520    4.3350   -9.8710 C.3    92  THR92       0.1770
     97  OG1       30.3140    4.7690  -10.4450 O.3    92  THR92      -0.2211
     98  CG2       31.3830    2.9310   -9.3240 C.3    92  THR92       0.0375
     99  N         32.6780   10.2280   -1.8590 N.3   103  ARG103     -0.1245
    100  CA        33.6770    9.2500   -2.2750 C.3   103  ARG103      0.1563
    101  C         35.0410    9.9140   -2.4480 C.2   103  ARG103      0.2260
    102  O         36.0800    9.3140   -2.1640 O.2   103  ARG103     -0.2867
    103  CB        33.2370    8.5760   -3.5740 C.3   103  ARG103      0.0307
    104  CG        32.0470    7.6570   -3.3680 C.3   103  ARG103      0.0489
    105  CD        31.4230    7.2260   -4.6780 C.3   103  ARG103      0.2205
    106  NE        30.3730    6.2360   -4.4590 N.pl3 103  ARG103     -0.0865
    107  CZ        29.4630    5.9040   -5.3680 C.cat 103  ARG103      0.5346
    108  NH1       29.4720    6.4910   -6.5580 N.pl3 103  ARG103      0.1354
    109  NH2       28.5530    4.9780   -5.0930 N.pl3 103  ARG103      0.1354
    110  N         38.1620   -6.8990   -3.6990 N.3   112  ASP112     -0.1225
    111  CA        37.8500   -7.5090   -4.9820 C.3   112  ASP112      0.1805
    112  C         36.6930   -6.6910   -5.5600 C.2   112  ASP112      0.2598
    113  O         36.3500   -6.8050   -6.7380 O.2   112  ASP112     -0.2718
    114  CB        37.4620   -8.9790   -4.7970 C.3   112  ASP112      0.1424
    115  CG        36.5650   -9.2030   -3.5930 C.2   112  ASP112      0.3668
    116  OD1       36.9010   -8.7110   -2.4940 O.co2 112  ASP112     -0.2456
    117  OD2       35.5280   -9.8840   -3.7400 O.co2 112  ASP112     -0.2456
    118  N         36.1070   -5.8520   -4.7090 N.am  113  ALA113     -0.1966
    119  CA        35.0140   -4.9710   -5.1000 C.3   113  ALA113      0.1728
    120  C         35.5260   -3.5400   -4.9980 C.2   113  ALA113      0.2616
    121  O         36.4480   -3.2620   -4.2330 O.2   113  ALA113     -0.2715
    122  CB        33.8230   -5.1610   -4.1660 C.3   113  ALA113      0.0334
    123  N         34.9450   -2.6340   -5.7780 N.am  114  ILE114     -0.1977
    124  CA        35.3590   -1.2410   -5.7170 C.3   114  ILE114      0.1596
    125  C         34.6370   -0.6130   -4.5260 C.2   114  ILE114      0.2287
    126  O         33.5360   -0.0780   -4.6650 O.2   114  ILE114     -0.2864
    127  CB        34.9920   -0.4750   -7.0130 C.3   114  ILE114      0.0276
    128  CG1       35.7170   -1.0970   -8.2130 C.3   114  ILE114      0.0022
    129  CG2       35.3890    0.9930   -6.8880 C.3   114  ILE114      0.0022
    130  CD1       37.2280   -1.0360   -8.1300 C.3   114  ILE114      0.0001
    131  N         33.3450    1.8910   -2.1400 N.3   116  ASN116     -0.1240
    132  CA        33.1510    3.3210   -2.3290 C.3   116  ASN116      0.1653
    133  C         32.2220    4.0530   -1.3630 C.2   116  ASN116      0.2266
    134  O         31.4500    4.9250   -1.7670 O.2   116  ASN116     -0.2867
    135  CB        32.7290    3.6090   -3.7740 C.3   116  ASN116      0.1155
    136  CG        31.4890    2.8540   -4.1810 C.2   116  ASN116      0.2627
    137  OD1       30.7620    2.3330   -3.3380 O.2   116  ASN116     -0.2716
    138  ND2       31.2320    2.7990   -5.4850 N.am  116  ASN116     -0.0877
    139  N         26.0610    3.9840   -1.4440 N.3   119  HIS119     -0.1226
    140  CA        25.2650    3.6640   -2.6180 C.3   119  HIS119      0.1752
    141  C         24.2250    4.7740   -2.6880 C.2   119  HIS119      0.2595
    142  O         23.7470    5.2450   -1.6560 O.2   119  HIS119     -0.2718
    143  CB        24.5030    2.3490   -2.4590 C.3   119  HIS119      0.0759
    144  CG        23.3770    2.2020   -3.4390 C.ar  119  HIS119      0.0818
    145  ND1       23.5790    1.8220   -4.7490 N.ar  119  HIS119     -0.2268
    146  CD2       22.0590    2.4950   -3.3320 C.ar  119  HIS119      0.1154
    147  CE1       22.4330    1.8890   -5.4080 C.ar  119  HIS119      0.1986
    148  NE2       21.4950    2.2970   -4.5710 N.ar  119  HIS119     -0.2212
    149  N         23.8720    5.1880   -3.8970 N.am  120  ALA120     -0.1980
    150  CA        22.8510    6.2100   -4.0840 C.3   120  ALA120      0.1597
    151  C         22.0420    5.7900   -5.3030 C.2   120  ALA120      0.2287
    152  O         22.6190    5.4100   -6.3230 O.2   120  ALA120     -0.2864
    153  CB        23.4920    7.5760   -4.3190 C.3   120  ALA120      0.0319
    154  N         20.1940    5.6710   -8.7230 N.3   122  ASP122     -0.1239
    155  CA        20.5830    6.4000   -9.9270 C.3   122  ASP122      0.1674
    156  C         19.4500    7.1320  -10.6430 C.2   122  ASP122      0.2266
    157  O         19.6980    7.8830  -11.5860 O.2   122  ASP122     -0.2867
    158  CB        21.3040    5.4670  -10.9120 C.3   122  ASP122      0.1410
    159  CG        20.4190    4.3470  -11.4220 C.2   122  ASP122      0.3668
    160  OD1       19.1920    4.3920  -11.1950 O.co2 122  ASP122     -0.2456
    161  OD2       20.9590    3.4200  -12.0680 O.co2 122  ASP122     -0.2456
@<TRIPOS>BOND
     1    48    49    1
     2    48    47    1
     3    46    47    1
     4    46    45    1
     5    42    41    1
     6    42    45    1
     7    42    43    1
     8    25    24    2
     9    43    44    2
    10    24    23    1
    11    24    31   am
    12    23    26    1
    13    23    22    1
    14    26    27    1
    15    29    28   ar
    16    59    57   ar
    17    59    60   ar
    18    34    33    2
    19    33    32    1
    20    32    31    1
    21    32    35    1
    22    37    39   ar
    23    37    36   ar
    24    57    55   ar
    25   161   159   ar
    26    60    58   ar
    27    27    28    1
    28    28    30   ar
    29    39    40   ar
    30    50    51    1
    31   157   156    2
    32   159   160   ar
    33   159   158    1
    34    35    36    1
    35    36    38   ar
    36   158   155    1
    37    91    89    1
    38    55    54    1
    39    55    56   ar
    40   156   155    1
    41    58    56   ar
    42    40    38   ar
    43    97    96    1
    44    51    54    1
    45    51    52    1
    46   155   154    1
    47    96    98    1
    48    96    93    1
    49    89    88    2
    50    89    90    1
    51    52    53    2
    52    88    87    1
    53    13    12    2
    54    92    93    1
    55    93    94    1
    56    12    11    1
    57    85    86    1
    58    85    82    1
    59   128   130    1
    60   128   127    1
    61    86    87    1
    62    94    95    2
    63    11    14    1
    64    11    10    1
    65    68    66    1
    66    84    83    2
    67    83    82    1
    68   127   129    1
    69   127   124    1
    70    14    15    1
    71    82    81    1
    72   113   112    2
    73    16    15   ar
    74    16    18   ar
    75   108   107    1
    76   152   151    2
    77    15    17   ar
    78    65    66    1
    79    65    62    1
    80    18    20   ar
    81    66    67    1
    82   123   124    1
    83   123   120   am
    84   124   125    1
    85   112   111    1
    86   112   118   am
    87   138   136   am
    88   147   145   ar
    89   147   148   ar
    90    61    62    1
    91   107   109    1
    92   107   106    2
    93   151   150    1
    94   119   120    1
    95   119   118    1
    96   119   122    1
    97   120   121    2
    98   111   114    1
    99   111   110    1
   100    62    63    1
   101    17    19   ar
   102   114   115    1
   103   145   144   ar
   104   105   106    1
   105   105   104    1
   106   126   125    2
   107    20    19   ar
   108    20    21    1
   109   148   146   ar
   110   153   150    1
   111   136   135    1
   112   136   137    2
   113   150   149    1
   114   149   141   am
   115    63    64    2
   116   135   132    1
   117   117   115   ar
   118   115   116   ar
   119   103   104    1
   120   103   100    1
   121   144   146   ar
   122   144   143    1
   123     9     8    1
   124   141   140    1
   125   141   142    2
   126   140   143    1
   127   140   139    1
   128   101   100    1
   129   101   102    2
   130   132   131    1
   131   132   133    1
   132   100    99    1
   133     8     7    1
   134    76    78   ar
   135    76    74   ar
   136   134   133    2
   137    78    79   ar
   138    73    74    1
   139    73    70    1
   140    74    75   ar
   141     7     6    1
   142    69    70    1
   143    79    80    1
   144    79    77   ar
   145    70    71    1
   146    75    77   ar
   147     6     5    1
   148    71    72    2
   149     5     2    1
   150     2     1    1
   151     2     3    1
   152     3     4    2
