@<TRIPOS>MOLECULE
tmp/2dxfA00.pdb
 156 147 0 0 0
SMALL
GASTEIGER

@<TRIPOS>ATOM
      1  N         15.4440   23.0630   -3.2080 N.3    10  LYS10      -0.1245
      2  CA        14.6280   24.2620   -3.0690 C.3    10  LYS10       0.1561
      3  C         14.6620   25.2770   -4.2070 C.2    10  LYS10       0.2260
      4  O         15.5390   25.2380   -5.0740 O.2    10  LYS10      -0.2867
      5  CB        14.9690   24.9230   -1.7300 C.3    10  LYS10       0.0271
      6  CG        14.7120   23.9900   -0.5570 C.3    10  LYS10       0.0035
      7  CD        15.0660   24.6250    0.7780 C.3    10  LYS10       0.0206
      8  CE        14.7480   23.6850    1.9270 C.3    10  LYS10       0.1093
      9  NZ        15.0170   24.3290    3.2470 N.3    10  LYS10      -0.1314
     10  N          5.9120   21.0400    6.2950 N.3    50  TYR50      -0.1241
     11  CA         6.5140   21.7950    7.3950 C.3    50  TYR50       0.1605
     12  C          5.5970   22.0020    8.6010 C.2    50  TYR50       0.2264
     13  O          5.7050   23.0120    9.2960 O.2    50  TYR50      -0.2867
     14  CB         6.9820   23.1630    6.8910 C.3    50  TYR50       0.0534
     15  CG         8.2260   23.1190    6.0310 C.ar   50  TYR50      -0.0201
     16  CD1        9.4010   22.5440    6.5080 C.ar   50  TYR50      -0.0009
     17  CD2        8.2400   23.6950    4.7580 C.ar   50  TYR50      -0.0009
     18  CE1       10.5680   22.5460    5.7440 C.ar   50  TYR50       0.0417
     19  CE2        9.4040   23.7040    3.9830 C.ar   50  TYR50       0.0417
     20  CZ        10.5620   23.1310    4.4850 C.ar   50  TYR50       0.1957
     21  OH        11.7220   23.1610    3.7430 O.3    50  TYR50      -0.2866
     22  N          5.6210   20.9090   11.5430 N.3    52  GLU52      -0.1231
     23  CA         6.3320   21.1190   12.8010 C.3    52  GLU52       0.1699
     24  C          6.6590   22.5790   13.1060 C.2    52  GLU52       0.2592
     25  O          6.9100   22.9300   14.2620 O.2    52  GLU52      -0.2718
     26  CB         7.6320   20.3150   12.8010 C.3    52  GLU52       0.0402
     27  CG         8.6070   20.7380   11.7150 C.3    52  GLU52       0.1161
     28  CD         9.8760   19.9130   11.7150 C.2    52  GLU52       0.3649
     29  OE1       10.6450   19.9950   12.6980 O.co2  52  GLU52      -0.2457
     30  OE2       10.1010   19.1780   10.7300 O.co2  52  GLU52      -0.2457
     31  N          6.6540   23.4260   12.0790 N.am   53  HIS53      -0.1976
     32  CA         6.9940   24.8390   12.2500 C.3    53  HIS53       0.1656
     33  C          5.8100   25.7980   12.2530 C.2    53  HIS53       0.2291
     34  O          6.0020   27.0100   12.2840 O.2    53  HIS53      -0.2864
     35  CB         7.9600   25.2780   11.1440 C.3    53  HIS53       0.0771
     36  CG         9.1940   24.4390   11.0520 C.ar   53  HIS53       0.0820
     37  ND1       10.0440   24.2490   12.1190 N.ar   53  HIS53      -0.2267
     38  CD2        9.7200   23.7380   10.0200 C.ar   53  HIS53       0.1154
     39  CE1       11.0420   23.4670   11.7500 C.ar   53  HIS53       0.1986
     40  NE2       10.8700   23.1420   10.4810 N.ar   53  HIS53      -0.2212
     41  N          5.9140   28.8420   14.6060 N.3    56  LYS56      -0.1245
     42  CA         7.1580   29.5880   14.6600 C.3    56  LYS56       0.1561
     43  C          6.9790   30.8660   13.8430 C.2    56  LYS56       0.2260
     44  O          6.2540   30.8880   12.8490 O.2    56  LYS56      -0.2867
     45  CB         8.3000   28.7220   14.1250 C.3    56  LYS56       0.0271
     46  CG         8.4750   27.4670   14.9680 C.3    56  LYS56       0.0035
     47  CD         9.6040   26.5770   14.5040 C.3    56  LYS56       0.0206
     48  CE         9.6780   25.3380   15.3850 C.3    56  LYS56       0.1093
     49  NZ        10.7230   24.3820   14.9270 N.3    56  LYS56      -0.1314
     50  N          8.7130   32.3100   11.6440 N.3    58  PHE58      -0.1241
     51  CA         9.1480   32.2730   10.2520 C.3    58  PHE58       0.1605
     52  C          8.3140   31.3590    9.3620 C.2    58  PHE58       0.2264
     53  O          8.6270   31.1860    8.1830 O.2    58  PHE58      -0.2867
     54  CB        10.6100   31.8300   10.1930 C.3    58  PHE58       0.0534
     55  CG        10.8540   30.4580   10.7710 C.ar   58  PHE58      -0.0203
     56  CD1       10.5070   29.3110   10.0610 C.ar   58  PHE58      -0.0042
     57  CD2       11.4340   30.3130   12.0290 C.ar   58  PHE58      -0.0042
     58  CE1       10.7330   28.0410   10.5890 C.ar   58  PHE58      -0.0003
     59  CE2       11.6640   29.0480   12.5670 C.ar   58  PHE58      -0.0003
     60  CZ        11.3140   27.9100   11.8460 C.ar   58  PHE58      -0.0000
     61  N          8.5590   30.8210    5.2640 N.3    62  LEU62      -0.1245
     62  CA         9.0510   29.5140    4.8440 C.3    62  LEU62       0.1561
     63  C          8.1320   28.9210    3.7830 C.2    62  LEU62       0.2260
     64  O          8.5970   28.3480    2.7980 O.2    62  LEU62      -0.2867
     65  CB         9.1450   28.5670    6.0450 C.3    62  LEU62       0.0270
     66  CG         9.4620   27.0940    5.7530 C.3    62  LEU62       0.0019
     67  CD1       10.7830   26.9750    4.9970 C.3    62  LEU62       0.0001
     68  CD2        9.5180   26.3280    7.0690 C.3    62  LEU62       0.0001
     69  N          8.6340   30.7850    0.6040 N.3    65  TYR65      -0.1241
     70  CA         9.9000   30.3450    0.0280 C.3    65  TYR65       0.1605
     71  C          9.8230   29.0120   -0.7160 C.2    65  TYR65       0.2264
     72  O         10.1740   28.9360   -1.8970 O.2    65  TYR65      -0.2867
     73  CB        10.9570   30.2940    1.1450 C.3    65  TYR65       0.0534
     74  CG        12.2580   29.5620    0.8440 C.ar   65  TYR65      -0.0201
     75  CD1       12.9450   29.7530   -0.3570 C.ar   65  TYR65      -0.0009
     76  CD2       12.8310   28.7250    1.8020 C.ar   65  TYR65      -0.0009
     77  CE1       14.1780   29.1230   -0.5910 C.ar   65  TYR65       0.0417
     78  CE2       14.0550   28.0980    1.5840 C.ar   65  TYR65       0.0417
     79  CZ        14.7240   28.3010    0.3870 C.ar   65  TYR65       0.1957
     80  OH        15.9400   27.6860    0.1930 O.3    65  TYR65      -0.2866
     81  N         22.0570   14.3910    5.8420 N.3    86  ARG86      -0.1245
     82  CA        21.9730   15.5430    6.7370 C.3    86  ARG86       0.1563
     83  C         23.3730   16.1250    6.9110 C.2    86  ARG86       0.2260
     84  O         23.5580   17.3420    6.9470 O.2    86  ARG86      -0.2867
     85  CB        21.4170   15.1220    8.1010 C.3    86  ARG86       0.0307
     86  CG        19.9640   14.6940    8.0640 C.3    86  ARG86       0.0489
     87  CD        19.0280   15.8880    7.9410 C.3    86  ARG86       0.2205
     88  NE        18.9620   16.6630    9.1780 N.pl3  86  ARG86      -0.0865
     89  CZ        18.0990   17.6520    9.3930 C.cat  86  ARG86       0.5346
     90  NH1       17.2280   17.9860    8.4520 N.pl3  86  ARG86       0.1354
     91  NH2       18.1060   18.3060   10.5480 N.pl3  86  ARG86       0.1354
     92  N         21.9250   24.4180    9.1360 N.3    92  THR92      -0.1218
     93  CA        20.6850   25.0070    8.6360 C.3    92  THR92       0.1862
     94  C         20.8940   26.3840    8.0130 C.2    92  THR92       0.2287
     95  O         20.3930   26.6570    6.9220 O.2    92  THR92      -0.2866
     96  CB        19.6330   25.1210    9.7580 C.3    92  THR92       0.1770
     97  OG1       19.3460   23.8160   10.2770 O.3    92  THR92      -0.2211
     98  CG2       18.3500   25.7300    9.2180 C.3    92  THR92       0.0375
     99  N         25.3000   23.2750    1.7310 N.3   103  ARG103     -0.1245
    100  CA        24.9600   24.6310    2.1420 C.3   103  ARG103      0.1563
    101  C         26.2270   25.4630    2.3280 C.2   103  ARG103      0.2260
    102  O         26.2370   26.6670    2.0620 O.2   103  ARG103     -0.2867
    103  CB        24.1440   24.5950    3.4350 C.3   103  ARG103      0.0307
    104  CG        22.7520   24.0350    3.2250 C.3   103  ARG103      0.0489
    105  CD        22.0510   23.7370    4.5370 C.3   103  ARG103      0.2205
    106  NE        20.6900   23.2630    4.3050 N.pl3 103  ARG103     -0.0865
    107  CZ        19.9900   22.5370    5.1710 C.cat 103  ARG103      0.5346
    108  NH1       20.5260   22.1890    6.3340 N.pl3 103  ARG103      0.1354
    109  NH2       18.7520   22.1620    4.8760 N.pl3 103  ARG103      0.1354
    110  N         13.2030   36.5470    3.7410 N.3   112  ASP112     -0.1225
    111  CA        12.5700   36.5860    5.0490 C.3   112  ASP112      0.1805
    112  C         12.5840   35.1500    5.5760 C.2   112  ASP112      0.2598
    113  O         12.1630   34.8650    6.6980 O.2   112  ASP112     -0.2718
    114  CB        11.1470   37.1530    4.9510 C.3   112  ASP112      0.1424
    115  CG        10.3490   36.5550    3.8100 C.2   112  ASP112      0.3668
    116  OD1       10.9260   36.3140    2.7280 O.co2 112  ASP112     -0.2456
    117  OD2        9.1300   36.3450    3.9900 O.co2 112  ASP112     -0.2456
    118  N         13.0940   34.2520    4.7360 N.am  113  ALA113     -0.1966
    119  CA        13.2360   32.8420    5.0700 C.3   113  ALA113      0.1728
    120  C         14.7220   32.5310    4.9360 C.2   113  ALA113      0.2616
    121  O         15.4240   33.1870    4.1740 O.2   113  ALA113     -0.2715
    122  CB        12.4380   31.9850    4.0990 C.3   113  ALA113      0.0334
    123  N         15.2070   31.5500    5.6860 N.am  114  ILE114     -0.1977
    124  CA        16.6150   31.1860    5.5940 C.3   114  ILE114      0.1596
    125  C         16.8040   30.2700    4.3860 C.2   114  ILE114      0.2287
    126  O         16.7080   29.0470    4.4960 O.2   114  ILE114     -0.2864
    127  CB        17.1010   30.4680    6.8730 C.3   114  ILE114      0.0276
    128  CG1       16.9860   31.4150    8.0710 C.3   114  ILE114      0.0022
    129  CG2       18.5560   30.0260    6.7040 C.3   114  ILE114      0.0022
    130  CD1       17.4920   30.8270    9.3650 C.3   114  ILE114      0.0001
    131  N         18.3380   27.9590    2.0750 N.3   116  ASN116     -0.1240
    132  CA        19.4860   27.0920    2.2690 C.3   116  ASN116      0.1653
    133  C         19.6710   25.9330    1.3000 C.2   116  ASN116      0.2266
    134  O         20.0750   24.8400    1.6960 O.2   116  ASN116     -0.2867
    135  CB        19.5280   26.5810    3.7130 C.3   116  ASN116      0.1155
    136  CG        18.2830   25.8340    4.1050 C.2   116  ASN116      0.2627
    137  OD1       17.4660   25.4760    3.2600 O.2   116  ASN116     -0.2716
    138  ND2       18.1330   25.5800    5.4030 N.am  116  ASN116     -0.0877
    139  N         16.5080   20.6170    1.2990 N.3   119  HIS119     -0.1241
    140  CA        15.8370   20.1080    2.4830 C.3   119  HIS119      0.1621
    141  C         16.2900   18.6570    2.5720 C.2   119  HIS119      0.2264
    142  O         16.4900   18.0060    1.5470 O.2   119  HIS119     -0.2867
    143  CB        14.3140   20.1030    2.3340 C.3   119  HIS119      0.0745
    144  CG        13.6340   19.2000    3.3190 C.ar  119  HIS119      0.0817
    145  ND1       13.4370   19.5520    4.6380 N.ar  119  HIS119     -0.2268
    146  CD2       13.2140   17.9170    3.2070 C.ar  119  HIS119      0.1154
    147  CE1       12.9280   18.5230    5.2960 C.ar  119  HIS119      0.1986
    148  NE2       12.7840   17.5180    4.4510 N.ar  119  HIS119     -0.2212
    149  N         15.0550   14.7780    8.6360 N.3   122  ASP122     -0.1239
    150  CA        15.8570   14.7670    9.8560 C.3   122  ASP122      0.1674
    151  C         15.9330   13.4050   10.5410 C.2   122  ASP122      0.2266
    152  O         16.7280   13.2180   11.4620 O.2   122  ASP122     -0.2867
    153  CB        15.3430   15.8110   10.8550 C.3   122  ASP122      0.1410
    154  CG        13.9150   15.5550   11.2920 C.2   122  ASP122      0.3668
    155  OD1       13.4870   14.3830   11.3040 O.co2 122  ASP122     -0.2456
    156  OD2       13.2240   16.5350   11.6440 O.co2 122  ASP122     -0.2456
@<TRIPOS>BOND
     1     4     3    2
     2     3     2    1
     3     1     2    1
     4     2     5    1
     5    72    71    2
     6     5     6    1
     7    71    70    1
     8    77    75   ar
     9    77    79   ar
    10     6     7    1
    11    75    74   ar
    12    70    69    1
    13    70    73    1
    14    80    79    1
    15    79    78   ar
    16     7     8    1
    17    74    73    1
    18    74    76   ar
    19   139   140    1
    20   133   134    2
    21   133   132    1
    22   142   141    2
    23    78    76   ar
    24    99   100    1
    25     8     9    1
    26   102   101    2
    27   131   132    1
    28   100   101    1
    29   100   103    1
    30   132   135    1
    31   143   140    1
    32   143   144    1
    33   140   141    1
    34   116   115   ar
    35    64    63    2
    36   146   144   ar
    37   146   148   ar
    38   104   103    1
    39   104   105    1
    40   137   136    2
    41   144   145   ar
    42   135   136    1
    43   110   111    1
    44    21    20    1
    45    63    62    1
    46   115   117   ar
    47   115   114    1
    48    19    20   ar
    49    19    17   ar
    50   122   119    1
    51   136   138   am
    52   121   120    2
    53   106   105    1
    54   106   107    2
    55   125   126    2
    56   125   124    1
    57   148   147   ar
    58    20    18   ar
    59   145   147   ar
    60   118   119    1
    61   118   112   am
    62    17    15   ar
    63    62    61    1
    64    62    65    1
    65   109   107    1
    66   120   119    1
    67   120   123   am
    68   114   111    1
    69    67    66    1
    70   111   112    1
    71   107   108    1
    72   112   113    2
    73   124   123    1
    74   124   127    1
    75    18    16   ar
    76    66    65    1
    77    66    68    1
    78    81    82    1
    79    15    16   ar
    80    15    14    1
    81    10    11    1
    82   129   127    1
    83    82    83    1
    84    82    85    1
    85   127   128    1
    86    14    11    1
    87    83    84    2
    88    95    94    2
    89    11    12    1
    90    87    86    1
    91    87    88    1
    92    94    93    1
    93    86    85    1
    94   128   130    1
    95    53    52    2
    96    90    89    1
    97    12    13    2
    98    93    92    1
    99    93    96    1
   100   149   150    1
   101    88    89    2
   102    98    96    1
   103    52    51    1
   104    89    91    1
   105    96    97    1
   106   150   151    1
   107   150   153    1
   108    38    40   ar
   109    38    36   ar
   110    56    58   ar
   111    56    55   ar
   112    54    51    1
   113    54    55    1
   114    51    50    1
   115    40    39   ar
   116   151   152    2
   117    58    60   ar
   118    30    28   ar
   119    55    57   ar
   120   153   154    1
   121    36    35    1
   122    36    37   ar
   123    35    32    1
   124   154   155   ar
   125   154   156   ar
   126    22    23    1
   127    27    28    1
   128    27    26    1
   129    28    29   ar
   130    39    37   ar
   131    60    59   ar
   132    57    59   ar
   133    31    32    1
   134    31    24   am
   135    32    33    1
   136    33    34    2
   137    26    23    1
   138    23    24    1
   139    44    43    2
   140    24    25    2
   141    43    42    1
   142    45    42    1
   143    45    46    1
   144    47    46    1
   145    47    48    1
   146    41    42    1
   147    49    48    1
