@<TRIPOS>MOLECULE
tmp/2dxpA00.pdb
 76 72 0 0 0
SMALL
GASTEIGER

@<TRIPOS>ATOM
      1  N          9.3860    6.7640   -4.5380 N.3    69  ASP69      -0.1225
      2  CA        10.6330    7.5150   -4.4610 C.3    69  ASP69       0.1805
      3  C         10.3310    9.0060   -4.5980 C.2    69  ASP69       0.2598
      4  O          9.5170    9.4060   -5.4340 O.2    69  ASP69      -0.2718
      5  CB        11.5890    7.0390   -5.5560 C.3    69  ASP69       0.1424
      6  CG        12.9020    7.7910   -5.5560 C.2    69  ASP69       0.3668
      7  OD1       13.3690    8.1910   -4.4700 O.co2  69  ASP69      -0.2456
      8  OD2       13.4740    7.9740   -6.6490 O.co2  69  ASP69      -0.2456
      9  N         10.9610    9.8170   -3.7500 N.am   70  GLY70      -0.1957
     10  CA        10.7410   11.2520   -3.7800 C.3    70  GLY70       0.1869
     11  C          9.3850   11.6580   -3.2170 C.2    70  GLY70       0.2309
     12  O          9.0300   12.8360   -3.2260 O.2    70  GLY70      -0.2863
     13  N         15.3400    3.5500    3.1760 N.3    96  SER96      -0.1202
     14  CA        14.7580    3.7300    1.8620 C.3    96  SER96       0.2020
     15  C         15.7390    3.0520    0.9110 C.2    96  SER96       0.2619
     16  O         16.2420    1.9650    1.2140 O.2    96  SER96      -0.2717
     17  CB        14.6170    5.2300    1.5560 C.3    96  SER96       0.2103
     18  OG        15.7930    5.9610    1.8930 O.3    96  SER96      -0.2182
     19  N         16.0010    3.6680   -0.2360 N.am   97  VAL97      -0.1965
     20  CA        16.9610    3.1100   -1.1730 C.3    97  VAL97       0.1727
     21  C         18.3080    3.7830   -0.9060 C.2    97  VAL97       0.2617
     22  O         19.3180    3.1150   -0.6870 O.2    97  VAL97      -0.2715
     23  CB        16.5490    3.3680   -2.6410 C.3    97  VAL97       0.0290
     24  CG1       17.7190    3.0690   -3.5730 C.3    97  VAL97       0.0023
     25  CG2       15.3490    2.4940   -3.0060 C.3    97  VAL97       0.0023
     26  N         18.3090    5.1120   -0.9080 N.am   98  GLY98      -0.1940
     27  CA        19.5360    5.8420   -0.6650 C.3    98  GLY98       0.2014
     28  C         19.7160    6.2240    0.7900 C.2    98  GLY98       0.2639
     29  O         20.7980    6.6550    1.1820 O.2    98  GLY98      -0.2714
     30  N         18.6550    6.0690    1.5850 N.am   99  GLY99      -0.1939
     31  CA        18.7120    6.4110    2.9970 C.3    99  GLY99       0.2014
     32  C         18.7110    7.9050    3.2410 C.2    99  GLY99       0.2639
     33  O         19.0460    8.3640    4.3360 O.2    99  GLY99      -0.2714
     34  N         18.2930    8.6590    2.2260 N.am  100  ILE100     -0.1963
     35  CA        18.2830   10.1170    2.2740 C.3   100  ILE100      0.1727
     36  C         16.9370   10.8460    2.1450 C.2   100  ILE100      0.2617
     37  O         16.6040   11.6960    2.9720 O.2   100  ILE100     -0.2715
     38  CB        19.2230   10.6650    1.1720 C.3   100  ILE100      0.0290
     39  CG1       20.6780   10.3260    1.5250 C.3   100  ILE100      0.0022
     40  CG2       19.0200   12.1610    0.9980 C.3   100  ILE100      0.0023
     41  CD1       21.6410   10.5230    0.3880 C.3   100  ILE100      0.0001
     42  N         16.1790   10.5240    1.1000 N.am  101  GLY101     -0.1940
     43  CA        14.9130   11.2050    0.8570 C.3   101  GLY101      0.2014
     44  C         13.7480   10.8110    1.7360 C.2   101  GLY101      0.2638
     45  O         13.3470   11.5520    2.6270 O.2   101  GLY101     -0.2714
     46  N         13.2030    9.6330    1.4780 N.am  102  ARG102     -0.1977
     47  CA        12.0750    9.1320    2.2420 C.3   102  ARG102      0.1597
     48  C         12.4560    8.8960    3.6950 C.2   102  ARG102      0.2287
     49  O         11.6780    9.1670    4.6120 O.2   102  ARG102     -0.2864
     50  CB        11.5720    7.8450    1.5920 C.3   102  ARG102      0.0334
     51  CG        10.9470    8.0990    0.2270 C.3   102  ARG102      0.0492
     52  CD        10.7710    6.8150   -0.5620 C.3   102  ARG102      0.2205
     53  NE        12.0060    6.4170   -1.2250 N.pl3 102  ARG102     -0.0865
     54  CZ        12.1040    5.3730   -2.0360 C.cat 102  ARG102      0.5346
     55  NH1       11.0380    4.6220   -2.2790 N.pl3 102  ARG102      0.1354
     56  NH2       13.2620    5.0860   -2.6170 N.pl3 102  ARG102      0.1354
     57  N         22.9600   12.7610    8.5250 N.3   130  ARG130     -0.1245
     58  CA        22.6700   12.3330    7.1570 C.3   130  ARG130      0.1563
     59  C         22.5690   13.5280    6.2220 C.2   130  ARG130      0.2260
     60  O         21.4810   14.0370    5.9470 O.2   130  ARG130     -0.2867
     61  CB        21.3790   11.4900    7.1080 C.3   130  ARG130      0.0307
     62  CG        20.8240   11.1710    5.6900 C.3   130  ARG130      0.0489
     63  CD        21.8500   11.4010    4.5580 C.3   130  ARG130      0.2205
     64  NE        22.6590   10.2300    4.2760 N.pl3 130  ARG130     -0.0865
     65  CZ        23.7180   10.2150    3.4710 C.cat 130  ARG130      0.5346
     66  NH1       24.1320   11.3170    2.8560 N.pl3 130  ARG130      0.1354
     67  NH2       24.3490    9.0740    3.2580 N.pl3 130  ARG130      0.1354
     68  N         14.6540   15.2650    0.2060 N.3   135  GLN135     -0.1245
     69  CA        14.9670   15.7400   -1.1360 C.3   135  GLN135      0.1566
     70  C         13.9780   16.6010   -1.9080 C.2   135  GLN135      0.2260
     71  O         14.3860   17.5360   -2.6020 O.2   135  GLN135     -0.2867
     72  CB        15.3040   14.5460   -2.0280 C.3   135  GLN135      0.0367
     73  CG        16.5360   13.7620   -1.6260 C.3   135  GLN135      0.0905
     74  CD        16.6890   12.4920   -2.4500 C.2   135  GLN135      0.2608
     75  OE1       15.8170   11.6180   -2.4270 O.2   135  GLN135     -0.2717
     76  NE2       17.7980   12.3820   -3.1790 N.am  135  GLN135     -0.0878
@<TRIPOS>BOND
     1     8     6   ar
     2     5     6    1
     3     5     2    1
     4     6     7   ar
     5     4     3    2
     6     3     2    1
     7     3     9   am
     8     1     2    1
     9    10     9    1
    10    10    11    1
    11    24    23    1
    12    12    11    2
    13    76    74   am
    14    25    23    1
    15    23    20    1
    16    56    54    1
    17    71    70    2
    18    74    75    2
    19    74    73    1
    20    55    54    1
    21    54    53    2
    22    72    73    1
    23    72    69    1
    24    70    69    1
    25    53    52    1
    26    20    21    1
    27    20    19    1
    28    69    68    1
    29    26    21   am
    30    26    27    1
    31    21    22    2
    32    27    28    1
    33    52    51    1
    34    19    15   am
    35    51    50    1
    36    41    39    1
    37    28    29    2
    38    28    30   am
    39    43    42    1
    40    43    44    1
    41    15    16    2
    42    15    14    1
    43    40    38    1
    44    42    36   am
    45    38    39    1
    46    38    35    1
    47    46    44   am
    48    46    47    1
    49    17    14    1
    50    17    18    1
    51    30    31    1
    52    50    47    1
    53    44    45    2
    54    14    13    1
    55    36    35    1
    56    36    37    2
    57    34    35    1
    58    34    32   am
    59    47    48    1
    60    66    65    1
    61    31    32    1
    62    32    33    2
    63    67    65    1
    64    65    64    2
    65    48    49    2
    66    64    63    1
    67    63    62    1
    68    62    61    1
    69    60    59    2
    70    59    58    1
    71    61    58    1
    72    58    57    1
