@<TRIPOS>MOLECULE
tmp/2dxsB00.pdb
 125 121 0 0 0
SMALL
GASTEIGER

@<TRIPOS>ATOM
      1  N         52.2290  -27.0360   10.3740 N.3    15  VAL15      -0.1245
      2  CA        50.9020  -26.3550   10.3800 C.3    15  VAL15       0.1561
      3  C         49.7870  -27.2680    9.8770 C.2    15  VAL15       0.2260
      4  O         49.7180  -27.5890    8.6890 O.2    15  VAL15      -0.2867
      5  CB        50.9270  -25.0890    9.5050 C.3    15  VAL15       0.0252
      6  CG1       49.5500  -24.4430    9.4810 C.3    15  VAL15       0.0019
      7  CG2       51.9590  -24.1150   10.0450 C.3    15  VAL15       0.0019
      8  N         50.8700  -17.0360   14.7970 N.3   365  LEU365     -0.1231
      9  CA        51.4280  -16.9130   13.4500 C.3   365  LEU365      0.1693
     10  C         50.9060  -18.0120   12.5150 C.2   365  LEU365      0.2591
     11  O         50.5210  -17.7430   11.3720 O.2   365  LEU365     -0.2718
     12  CB        52.9610  -16.9510   13.4980 C.3   365  LEU365      0.0284
     13  CG        53.6390  -15.7970   14.2430 C.3   365  LEU365      0.0019
     14  CD1       55.1390  -15.9040   14.0890 C.3   365  LEU365      0.0001
     15  CD2       53.1480  -14.4700   13.7020 C.3   365  LEU365      0.0001
     16  N         50.8790  -19.2440   13.0060 N.am  366  ALA366     -0.1980
     17  CA        50.4210  -20.3620   12.1940 C.3   366  ALA366      0.1597
     18  C         48.9850  -20.1590   11.7490 C.2   366  ALA366      0.2287
     19  O         48.6440  -20.4230   10.6020 O.2   366  ALA366     -0.2864
     20  CB        50.5420  -21.6630   12.9740 C.3   366  ALA366      0.0319
     21  N         47.2750  -17.2640   11.6590 N.3   368  ALA368     -0.1231
     22  CA        47.2490  -16.1420   10.7380 C.3   368  ALA368      0.1694
     23  C         47.6120  -16.6290    9.3330 C.2   368  ALA368      0.2591
     24  O         46.8620  -16.4210    8.3730 O.2   368  ALA368     -0.2718
     25  CB        48.2280  -15.0800   11.1970 C.3   368  ALA368      0.0304
     26  N         48.7590  -17.2930    9.2190 N.am  369  ALA369     -0.1980
     27  CA        49.2010  -17.8200    7.9360 C.3   369  ALA369      0.1597
     28  C         48.0860  -18.6410    7.3080 C.2   369  ALA369      0.2287
     29  O         47.8050  -18.5190    6.1170 O.2   369  ALA369     -0.2864
     30  CB        50.4340  -18.6780    8.1250 C.3   369  ALA369      0.0319
     31  N         45.3250  -16.3830    6.0910 N.3   372  THR372     -0.1218
     32  CA        45.7370  -15.7330    4.8540 C.3   372  THR372      0.1862
     33  C         45.4710  -16.6670    3.6790 C.2   372  THR372      0.2287
     34  O         44.9260  -16.2560    2.6560 O.2   372  THR372     -0.2866
     35  CB        47.2440  -15.3920    4.8690 C.3   372  THR372      0.1770
     36  OG1       47.5250  -14.4930    5.9480 O.3   372  THR372     -0.2211
     37  CG2       47.6540  -14.7410    3.5600 C.3   372  THR372      0.0375
     38  N         54.7420   -7.6960   13.0250 N.3   397  ILE397     -0.1231
     39  CA        54.4540   -8.7520   12.0690 C.3   397  ILE397      0.1692
     40  C         52.9950   -8.7320   11.6550 C.2   397  ILE397      0.2591
     41  O         52.6750   -8.4560   10.4980 O.2   397  ILE397     -0.2718
     42  CB        54.7960  -10.1320   12.6570 C.3   397  ILE397      0.0266
     43  CG1       56.2680  -10.1610   13.0730 C.3   397  ILE397      0.0019
     44  CG2       54.5020  -11.2230   11.6330 C.3   397  ILE397      0.0020
     45  CD1       56.6890  -11.4330   13.7720 C.3   397  ILE397      0.0001
     46  N         52.1100   -9.0090   12.6070 N.am  398  LEU398     -0.1980
     47  CA        50.6870   -9.1310   12.3170 C.3   398  LEU398      0.1596
     48  C         50.0640   -7.8440   11.7740 C.2   398  LEU398      0.2287
     49  O         49.3160   -7.8740   10.7970 O.2   398  LEU398     -0.2864
     50  CB        49.9370   -9.5800   13.5750 C.3   398  LEU398      0.0297
     51  CG        50.2440  -10.9930   14.0740 C.3   398  LEU398      0.0022
     52  CD1       49.3990  -11.2920   15.3070 C.3   398  LEU398      0.0001
     53  CD2       49.9550  -12.0020   12.9680 C.3   398  LEU398      0.0001
     54  N         51.6510   -7.0970    8.2480 N.3   401  HIS401     -0.1226
     55  CA        51.2240   -8.0250    7.2120 C.3   401  HIS401      0.1752
     56  C         49.7680   -7.8350    6.8000 C.2   401  HIS401      0.2596
     57  O         49.4360   -7.9080    5.6160 O.2   401  HIS401     -0.2718
     58  CB        51.4280   -9.4690    7.6660 C.3   401  HIS401      0.0759
     59  CG        51.2290  -10.4720    6.5730 C.ar  401  HIS401      0.0818
     60  ND1       51.9520  -10.4440    5.4000 N.ar  401  HIS401     -0.2268
     61  CD2       50.3840  -11.5240    6.4690 C.ar  401  HIS401      0.1154
     62  CE1       51.5610  -11.4360    4.6200 C.ar  401  HIS401      0.1986
     63  NE2       50.6100  -12.1070    5.2450 N.ar  401  HIS401     -0.2212
     64  N         48.8940   -7.5930    7.7710 N.am  402  PHE402     -0.1976
     65  CA        47.4700   -7.5390    7.4770 C.3   402  PHE402      0.1639
     66  C         46.9720   -6.1740    7.0290 C.2   402  PHE402      0.2290
     67  O         45.9730   -6.0800    6.3190 O.2   402  PHE402     -0.2864
     68  CB        46.6720   -8.0480    8.6760 C.3   402  PHE402      0.0560
     69  CG        46.7480   -9.5370    8.8400 C.ar  402  PHE402     -0.0200
     70  CD1       46.0790  -10.3730    7.9590 C.ar  402  PHE402     -0.0042
     71  CD2       47.5260  -10.1060    9.8320 C.ar  402  PHE402     -0.0042
     72  CE1       46.1870  -11.7450    8.0600 C.ar  402  PHE402     -0.0003
     73  CE2       47.6380  -11.4780    9.9400 C.ar  402  PHE402     -0.0003
     74  CZ        46.9680  -12.2990    9.0500 C.ar  402  PHE402     -0.0000
     75  N         59.7070  -21.0120   11.8210 N.3   465  LEU465     -0.1231
     76  CA        58.5190  -20.9650   10.9770 C.3   465  LEU465      0.1693
     77  C         58.8340  -20.5560    9.5410 C.2   465  LEU465      0.2593
     78  O         57.9700  -20.6190    8.6640 O.2   465  LEU465     -0.2718
     79  CB        57.4840  -20.0090   11.5750 C.3   465  LEU465      0.0284
     80  CG        56.8570  -20.4640   12.8990 C.3   465  LEU465      0.0019
     81  CD1       55.8650  -19.4160   13.3890 C.3   465  LEU465      0.0001
     82  CD2       56.1660  -21.8060   12.7020 C.3   465  LEU465      0.0001
     83  N         60.0740  -20.1410    9.3020 N.am  466  GLY466     -0.1942
     84  CA        60.4590  -19.7280    7.9670 C.3   466  GLY466      0.2014
     85  C         59.8490  -18.3880    7.6170 C.2   466  GLY466      0.2639
     86  O         59.5600  -18.1050    6.4570 O.2   466  GLY466     -0.2714
     87  N         59.6410  -17.5640    8.6370 N.am  467  VAL467     -0.1963
     88  CA        59.1050  -16.2230    8.4530 C.3   467  VAL467      0.1712
     89  C         60.2590  -15.2340    8.4610 C.2   467  VAL467      0.2458
     90  O         61.1770  -15.3510    9.2710 O.2   467  VAL467     -0.2730
     91  CB        58.1320  -15.8590    9.5930 C.3   467  VAL467      0.0289
     92  CG1       57.5400  -14.4800    9.3650 C.3   467  VAL467      0.0023
     93  CG2       57.0430  -16.9020    9.6870 C.3   467  VAL467      0.0023
     94  N         60.2220  -14.2380    7.5640 N.am  468  PRO468     -0.2727
     95  CA        61.2950  -13.2440    7.4730 C.3   468  PRO468      0.1402
     96  C         61.6010  -12.6280    8.8260 C.2   468  PRO468      0.2269
     97  O         60.7110  -12.4540    9.6550 O.2   468  PRO468     -0.2865
     98  CB        60.7470  -12.2120    6.4870 C.3   468  PRO468      0.0296
     99  CG        59.7910  -12.9850    5.6450 C.3   468  PRO468      0.0237
    100  CD        59.1570  -13.9830    6.5770 C.3   468  PRO468      0.0939
    101  N         60.4420   -7.0300    8.3340 N.3   473  TRP473     -0.1241
    102  CA        59.1290   -6.5290    8.6970 C.3   473  TRP473      0.1605
    103  C         59.1490   -5.0330    8.9590 C.2   473  TRP473      0.2264
    104  O         58.1840   -4.3380    8.6570 O.2   473  TRP473     -0.2867
    105  CB        58.6110   -7.2770    9.9240 C.3   473  TRP473      0.0550
    106  CG        58.2800   -8.6890    9.6140 C.ar  473  TRP473      0.0003
    107  CD1       59.0110   -9.7930    9.9340 C.ar  473  TRP473      0.0946
    108  CD2       57.1500   -9.1560    8.8700 C.ar  473  TRP473      0.0152
    109  NE1       58.4080  -10.9210    9.4310 N.ar  473  TRP473     -0.2442
    110  CE2       57.2630  -10.5570    8.7740 C.ar  473  TRP473      0.0810
    111  CE3       56.0540   -8.5250    8.2750 C.ar  473  TRP473      0.0012
    112  CZ2       56.3230  -11.3370    8.1080 C.ar  473  TRP473      0.0191
    113  CZ3       55.1230   -9.3000    7.6140 C.ar  473  TRP473      0.0001
    114  CH2       55.2620  -10.6920    7.5350 C.ar  473  TRP473      0.0015
    115  N         59.1420   -3.5070    5.4930 N.3   476  ARG476     -0.1245
    116  CA        57.8120   -3.6590    4.9170 C.3   476  ARG476      0.1563
    117  C         56.7880   -2.7640    5.6130 C.2   476  ARG476      0.2260
    118  O         55.8110   -2.3320    5.0010 O.2   476  ARG476     -0.2867
    119  CB        57.3700   -5.1180    5.0120 C.3   476  ARG476      0.0307
    120  CG        58.2940   -6.0820    4.2980 C.3   476  ARG476      0.0489
    121  CD        57.7600   -7.4980    4.3860 C.3   476  ARG476      0.2205
    122  NE        58.4410   -8.4090    3.4720 N.pl3 476  ARG476     -0.0865
    123  CZ        58.0600   -9.6630    3.2520 C.cat 476  ARG476      0.5346
    124  NH1       57.0000  -10.1540    3.8820 N.pl3 476  ARG476      0.1354
    125  NH2       58.7330  -10.4250    2.4010 N.pl3 476  ARG476      0.1354
@<TRIPOS>BOND
     1   125   123    1
     2    34    33    2
     3   123   122    2
     4   123   124    1
     5   122   121    1
     6    37    35    1
     7    33    32    1
     8   120   121    1
     9   120   119    1
    10    62    63   ar
    11    62    60   ar
    12    32    35    1
    13    32    31    1
    14    35    36    1
    15   116   119    1
    16   116   115    1
    17   116   117    1
    18   118   117    2
    19    63    61   ar
    20    60    59   ar
    21    57    56    2
    22    99    98    1
    23    99   100    1
    24    29    28    2
    25    67    66    2
    26    86    85    2
    27    61    59   ar
    28    98    95    1
    29    59    58    1
    30   100    94    1
    31    56    55    1
    32    56    64   am
    33    66    65    1
    34    55    58    1
    35    55    54    1
    36    28    27    1
    37    95    94    1
    38    95    96    1
    39    65    64    1
    40    65    68    1
    41   114   113   ar
    42   114   112   ar
    43    94    89   am
    44   113   111   ar
    45    85    84    1
    46    85    87   am
    47    27    30    1
    48    27    26    1
    49    70    72   ar
    50    70    69   ar
    51    84    83    1
    52    72    74   ar
    53   112   110   ar
    54   111   108   ar
    55   101   102    1
    56    24    23    2
    57    88    89    1
    58    88    87    1
    59    88    91    1
    60    89    90    2
    61   104   103    2
    62    78    77    2
    63    68    69    1
    64     4     3    2
    65   102   103    1
    66   102   105    1
    67   110   108   ar
    68   110   109   ar
    69    96    97    2
    70    69    71   ar
    71   108   106   ar
    72    74    73   ar
    73    26    23   am
    74    83    77   am
    75    23    22    1
    76    92    91    1
    77   109   107   ar
    78     6     5    1
    79     5     7    1
    80     5     2    1
    81    77    76    1
    82    91    93    1
    83   106   105    1
    84   106   107   ar
    85    71    73   ar
    86     3     2    1
    87     1     2    1
    88    41    40    2
    89    19    18    2
    90    22    25    1
    91    22    21    1
    92    49    48    2
    93    76    79    1
    94    76    75    1
    95    11    10    2
    96    79    80    1
    97    44    42    1
    98    40    39    1
    99    40    46   am
   100    18    17    1
   101    48    47    1
   102    39    42    1
   103    39    38    1
   104    17    20    1
   105    17    16    1
   106    47    46    1
   107    47    50    1
   108    10    16   am
   109    10     9    1
   110    42    43    1
   111    82    80    1
   112    80    81    1
   113    53    51    1
   114    43    45    1
   115     9    12    1
   116     9     8    1
   117    12    13    1
   118    50    51    1
   119    15    13    1
   120    51    52    1
   121    14    13    1
