@<TRIPOS>MOLECULE
tmp/2dxyA03.pdb
 108 108 0 0 0
SMALL
GASTEIGER

@<TRIPOS>ATOM
      1  N         18.2470   16.5640   10.8490 N.3    89  THR89      -0.1203
      2  CA        17.8400   15.1950   10.5560 C.3    89  THR89       0.1994
      3  C         16.4230   15.1730    9.9750 C.2    89  THR89       0.2618
      4  O         15.5930   16.0340   10.2740 O.2    89  THR89      -0.2717
      5  CB        17.8740   14.3200   11.8090 C.3    89  THR89       0.1784
      6  OG1       17.0350   14.9070   12.8000 O.3    89  THR89      -0.2211
      7  CG2       19.2640   14.3230   12.4430 C.3    89  THR89       0.0376
      8  N         16.1440   14.1650    9.1640 N.am   90  GLU90      -0.1965
      9  CA        14.8400   14.0790    8.5320 C.3    90  GLU90       0.1733
     10  C         13.9040   13.0490    9.1890 C.2    90  GLU90       0.2616
     11  O         12.6730   13.2310    9.2260 O.2    90  GLU90      -0.2715
     12  CB        15.0100   13.7780    7.0460 C.3    90  GLU90       0.0429
     13  CG        15.8060   14.8260    6.2790 C.3    90  GLU90       0.1163
     14  CD        15.7830   14.5640    4.7770 C.2    90  GLU90       0.3649
     15  OE1       14.6870   14.6650    4.1800 O.co2  90  GLU90      -0.2457
     16  OE2       16.8430   14.2250    4.2050 O.co2  90  GLU90      -0.2457
     17  N         14.4580   11.9710    9.6980 N.am   91  GLY91      -0.1955
     18  CA        13.6110   10.9960   10.3830 C.3    91  GLY91       0.1869
     19  C         13.3650    9.8260    9.4580 C.2    91  GLY91       0.2309
     20  O         13.4970    9.9660    8.2490 O.2    91  GLY91      -0.2863
     21  N          6.4600    8.8950   10.8740 N.3   250  VAL250     -0.1231
     22  CA         7.8450    9.2310   10.7020 C.3   250  VAL250      0.1692
     23  C          8.5040    9.1490   12.0990 C.2   250  VAL250      0.2592
     24  O          7.9540    9.6160   13.1000 O.2   250  VAL250     -0.2718
     25  CB         8.1390   10.5120    9.8230 C.3   250  VAL250      0.0266
     26  CG1        6.8640   11.1230    9.1380 C.3   250  VAL250      0.0020
     27  CG2        9.0340   11.5200   10.5050 C.3   250  VAL250      0.0020
     28  N          9.6190    8.4430   12.1750 N.am  251  ALA251     -0.1966
     29  CA        10.3150    8.2050   13.4490 C.3   251  ALA251      0.1714
     30  C         11.5260    9.1420   13.6190 C.2   251  ALA251      0.2463
     31  O         12.2170    9.3930   12.6800 O.2   251  ALA251     -0.2730
     32  CB        10.8300    6.7570   13.4660 C.3   251  ALA251      0.0333
     33  N         11.8390    9.5850   14.8260 N.am  252  PRO252     -0.2641
     34  CA        13.0830   10.3530   15.0360 C.3   252  PRO252      0.1762
     35  C         14.3210    9.4340   14.8760 C.2   252  PRO252      0.2641
     36  O         14.3230    8.2220   15.2580 O.2   252  PRO252     -0.2712
     37  CB        12.9920   10.8470   16.4840 C.2   252  PRO252     -0.0003
     38  CG        11.8600   10.1550   17.1060 C.2   252  PRO252     -0.0071
     39  CD        11.0560    9.3690   16.0610 C.3   252  PRO252      0.1204
     40  N         15.3760    9.9760   14.2740 N.am  253  ASN253     -0.1970
     41  CA        16.5560    9.1580   14.0630 C.3   253  ASN253      0.1688
     42  C         17.1520    8.6210   15.3870 C.2   253  ASN253      0.2292
     43  O         16.9310    9.2130   16.4830 O.2   253  ASN253     -0.2864
     44  CB        17.6230    9.9200   13.2700 C.3   253  ASN253      0.1181
     45  CG        17.2240   10.1390   11.7920 C.2   253  ASN253      0.2629
     46  OD1       16.3480    9.4520   11.2460 O.2   253  ASN253     -0.2716
     47  ND2       17.8740   11.0780   11.1550 N.am  253  ASN253     -0.0877
     48  N         12.0360   17.1020   23.5270 N.3   318  GLU318     -0.1231
     49  CA        12.1220   17.9230   22.3260 C.3   318  GLU318      0.1699
     50  C         12.7480   17.1300   21.1800 C.2   318  GLU318      0.2592
     51  O         12.3970   17.3340   20.0300 O.2   318  GLU318     -0.2718
     52  CB        12.9470   19.2040   22.5470 C.3   318  GLU318      0.0402
     53  CG        12.4150   20.1570   23.6250 C.3   318  GLU318      0.1161
     54  CD        13.3700   21.3130   23.8550 C.2   318  GLU318      0.3649
     55  OE1       14.5510   21.0540   24.1640 O.co2 318  GLU318     -0.2457
     56  OE2       12.9380   22.4790   23.7020 O.co2 318  GLU318     -0.2457
     57  N         13.7090   16.2670   21.4860 N.am  319  TYR319     -0.1962
     58  CA        14.3220   15.4680   20.4250 C.3   319  TYR319      0.1771
     59  C         13.2900   14.4780   19.8730 C.2   319  TYR319      0.2619
     60  O         13.1920   14.3020   18.6760 O.2   319  TYR319     -0.2715
     61  CB        15.5700   14.6930   20.9000 C.3   319  TYR319      0.0574
     62  CG        16.1640   13.8940   19.7520 C.ar  319  TYR319     -0.0198
     63  CD1       16.9020   14.5320   18.7580 C.ar  319  TYR319     -0.0009
     64  CD2       15.8780   12.5430   19.5970 C.ar  319  TYR319     -0.0009
     65  CE1       17.3900   13.8410   17.6760 C.ar  319  TYR319      0.0417
     66  CE2       16.3600   11.8420   18.5290 C.ar  319  TYR319      0.0417
     67  CZ        17.0990   12.4840   17.5690 C.ar  319  TYR319      0.1957
     68  OH        17.5880   11.8060   16.4990 O.3   319  TYR319     -0.2866
     69  N         12.5280   13.8330   20.7400 N.am  320  LEU320     -0.1963
     70  CA        11.5970   12.8560   20.2570 C.3   320  LEU320      0.1728
     71  C         10.3940   13.5270   19.5690 C.2   320  LEU320      0.2617
     72  O          9.8670   12.9770   18.6190 O.2   320  LEU320     -0.2715
     73  CB        11.1490   11.8920   21.3620 C.3   320  LEU320      0.0311
     74  CG        12.2760   11.0100   21.9060 C.3   320  LEU320      0.0022
     75  CD1       11.7150   10.0900   23.0010 C.3   320  LEU320      0.0001
     76  CD2       13.0050   10.1710   20.7880 C.3   320  LEU320      0.0001
     77  N          9.9850   14.7010   20.0770 N.am  321  GLY321     -0.1940
     78  CA         8.8270   15.4260   19.5730 C.3   321  GLY321      0.2014
     79  C          7.5810   15.0480   20.3630 C.2   321  GLY321      0.2640
     80  O          7.4120   13.8690   20.7740 O.2   321  GLY321     -0.2714
     81  N          6.6830   16.0200   20.5550 N.am  322  THR322     -0.1936
     82  CA         5.4740   15.8030   21.3710 C.3   322  THR322      0.2028
     83  C          4.5320   14.7800   20.7690 C.2   322  THR322      0.2642
     84  O          3.8490   14.0720   21.4770 O.2   322  THR322     -0.2714
     85  CB         4.6680   17.1110   21.6170 C.3   322  THR322      0.1808
     86  OG1        4.4650   17.7820   20.3650 O.3   322  THR322     -0.2208
     87  CG2        5.4610   18.1080   22.4620 C.3   322  THR322      0.0379
     88  N          4.4680   14.6990   19.4280 N.am  323  GLU323     -0.1963
     89  CA         3.5430   13.7090   18.8960 C.3   323  GLU323      0.1733
     90  C          4.1070   12.2900   19.2420 C.2   323  GLU323      0.2616
     91  O          3.3280   11.4560   19.6830 O.2   323  GLU323     -0.2715
     92  CB         3.2230   13.9480   17.3670 C.3   323  GLU323      0.0429
     93  CG         4.1320   13.0790   16.4460 C.3   323  GLU323      0.1163
     94  CD         3.7510   12.8300   14.9640 C.2   323  GLU323      0.3649
     95  OE1        2.6020   12.4570   14.6840 O.co2 323  GLU323     -0.2457
     96  OE2        4.6370   13.0040   14.1120 O.co2 323  GLU323     -0.2457
     97  N          5.4230   11.9990   19.0570 N.am  324  TYR324     -0.1974
     98  CA         5.9320   10.6650   19.4320 C.3   324  TYR324      0.1639
     99  C          5.8500   10.3610   20.9230 C.2   324  TYR324      0.2290
    100  O          5.4250    9.2800   21.3220 O.2   324  TYR324     -0.2864
    101  CB         7.3420   10.4510   18.8850 C.3   324  TYR324      0.0560
    102  CG         7.8820    9.0430   19.0730 C.ar  324  TYR324     -0.0198
    103  CD1        7.0950    7.9130   18.8270 C.ar  324  TYR324     -0.0009
    104  CD2        9.1790    8.8490   19.4860 C.ar  324  TYR324     -0.0009
    105  CE1        7.6070    6.6230   19.0250 C.ar  324  TYR324      0.0417
    106  CE2        9.7080    7.5620   19.6810 C.ar  324  TYR324      0.0417
    107  CZ         8.9210    6.4620   19.4580 C.ar  324  TYR324      0.1957
    108  OH         9.4740    5.2120   19.6750 O.3   324  TYR324     -0.2866
@<TRIPOS>BOND
     1    15    14   ar
     2    16    14   ar
     3    14    13    1
     4    13    12    1
     5    12     9    1
     6    20    19    2
     7     9     8    1
     8     9    10    1
     9    26    25    1
    10     8     3   am
    11    10    11    2
    12    10    17   am
    13    19    18    1
    14    17    18    1
    15    25    27    1
    16    25    22    1
    17     3     4    2
    18     3     2    1
    19     2     1    1
    20     2     5    1
    21    22    21    1
    22    22    23    1
    23    47    45   am
    24    46    45    2
    25    45    44    1
    26     5     7    1
    27     5     6    1
    28    23    28   am
    29    23    24    2
    30    28    29    1
    31    31    30    2
    32    44    41    1
    33    29    32    1
    34    29    30    1
    35    30    33   am
    36    41    40    1
    37    41    42    1
    38    96    94   ar
    39    40    35   am
    40    95    94   ar
    41    33    34    1
    42    33    39    1
    43    35    34    1
    44    35    36    2
    45    94    93    1
    46    34    37    1
    47    42    43    2
    48    39    38    1
    49    93    92    1
    50    37    38    2
    51    68    67    1
    52    92    89    1
    53    67    65   ar
    54    67    66   ar
    55    65    63   ar
    56    66    64   ar
    57    72    71    2
    58    60    59    2
    59    63    62   ar
    60   103   105   ar
    61   103   102   ar
    62   101   102    1
    63   101    98    1
    64    89    90    1
    65    89    88    1
    66   105   107   ar
    67    97    90   am
    68    97    98    1
    69   102   104   ar
    70    90    91    2
    71    88    83   am
    72    98    99    1
    73   107   108    1
    74   107   106   ar
    75   104   106   ar
    76    71    77   am
    77    71    70    1
    78    78    77    1
    79    78    79    1
    80    64    62   ar
    81    62    61    1
    82    59    58    1
    83    59    69   am
    84    51    50    2
    85    70    69    1
    86    70    73    1
    87    79    81   am
    88    79    80    2
    89    86    85    1
    90    58    61    1
    91    58    57    1
    92    81    82    1
    93    83    82    1
    94    83    84    2
    95    76    74    1
    96    99   100    2
    97    50    57   am
    98    50    49    1
    99    73    74    1
   100    82    85    1
   101    85    87    1
   102    74    75    1
   103    49    52    1
   104    49    48    1
   105    52    53    1
   106    53    54    1
   107    56    54   ar
   108    54    55   ar
