@<TRIPOS>MOLECULE
tmp/2dy3D00.pdb
 135 133 0 0 0
SMALL
GASTEIGER

@<TRIPOS>ATOM
      1  N        -51.0400  110.1180   48.1780 N.3    32  VAL32      -0.1245
      2  CA       -50.9780  109.9790   49.6280 C.3    32  VAL32       0.1561
      3  C        -51.4150  111.2920   50.2540 C.2    32  VAL32       0.2260
      4  O        -50.7670  112.3280   50.0580 O.2    32  VAL32      -0.2867
      5  CB       -49.5460  109.6260   50.0890 C.3    32  VAL32       0.0252
      6  CG1      -49.5010  109.4820   51.6040 C.3    32  VAL32       0.0019
      7  CG2      -49.0960  108.3420   49.4120 C.3    32  VAL32       0.0019
      8  N        -52.4120  111.5400   53.7850 N.3    34  LYS34      -0.1245
      9  CA       -52.4510  111.3760   55.2320 C.3    34  LYS34       0.1561
     10  C        -52.0710  112.7080   55.8780 C.2    34  LYS34       0.2260
     11  O        -51.5850  113.6230   55.2080 O.2    34  LYS34      -0.2867
     12  CB       -51.4340  110.3140   55.6570 C.3    34  LYS34       0.0271
     13  CG       -50.0380  110.7120   55.2330 C.3    34  LYS34       0.0035
     14  CD       -49.0030  109.6210   55.3840 C.3    34  LYS34       0.0206
     15  CE       -47.7770  110.0570   54.6250 C.3    34  LYS34       0.1093
     16  NZ       -46.6250  109.1540   54.6770 N.3    34  LYS34      -0.1314
     17  N        -50.9470  116.3480   54.2600 N.3    38  TYR38      -0.1241
     18  CA       -49.6920  117.0050   54.6160 C.3    38  TYR38       0.1605
     19  C        -49.9570  118.4250   55.1370 C.2    38  TYR38       0.2264
     20  O        -49.2450  119.3700   54.8050 O.2    38  TYR38      -0.2867
     21  CB       -48.7470  117.0410   53.4040 C.3    38  TYR38       0.0534
     22  CG       -48.0870  115.7030   53.0770 C.ar   38  TYR38      -0.0201
     23  CD1      -48.7780  114.5040   53.2310 C.ar   38  TYR38      -0.0009
     24  CD2      -46.7860  115.6480   52.5880 C.ar   38  TYR38      -0.0009
     25  CE1      -48.1910  113.2840   52.9080 C.ar   38  TYR38       0.0417
     26  CE2      -46.1850  114.4310   52.2600 C.ar   38  TYR38       0.0417
     27  CZ       -46.8920  113.2550   52.4230 C.ar   38  TYR38       0.1957
     28  OH       -46.2990  112.0490   52.1070 O.3    38  TYR38      -0.2866
     29  N        -52.7390  102.1430   56.2430 N.3    80  TRP80      -0.1241
     30  CA       -51.7990  101.1530   56.7450 C.3    80  TRP80       0.1605
     31  C        -51.4450  101.1850   58.2290 C.2    80  TRP80       0.2264
     32  O        -50.6280  100.3900   58.6860 O.2    80  TRP80      -0.2867
     33  CB       -50.5270  101.2230   55.8970 C.3    80  TRP80       0.0550
     34  CG       -50.0530  102.6310   55.6450 C.ar   80  TRP80       0.0003
     35  CD1      -49.3800  103.4380   56.5150 C.ar   80  TRP80       0.0946
     36  CD2      -50.2450  103.4020   54.4490 C.ar   80  TRP80       0.0152
     37  NE1      -49.1430  104.6610   55.9380 N.ar   80  TRP80      -0.2442
     38  CE2      -49.6630  104.6670   54.6700 C.ar   80  TRP80       0.0810
     39  CE3      -50.8500  103.1450   53.2150 C.ar   80  TRP80       0.0012
     40  CZ2      -49.6670  105.6750   53.7020 C.ar   80  TRP80       0.0191
     41  CZ3      -50.8550  104.1470   52.2510 C.ar   80  TRP80       0.0001
     42  CH2      -50.2660  105.3950   52.5000 C.ar   80  TRP80       0.0015
     43  N        -48.4920   94.5100   53.6290 N.3   122  LYS122     -0.1245
     44  CA       -47.4030   95.4580   53.7970 C.3   122  LYS122      0.1561
     45  C        -46.2230   94.5940   54.1760 C.2   122  LYS122      0.2260
     46  O        -46.2060   94.0000   55.2490 O.2   122  LYS122     -0.2867
     47  CB       -47.6990   96.4350   54.9330 C.3   122  LYS122      0.0271
     48  CG       -46.5840   97.4320   55.1950 C.3   122  LYS122      0.0035
     49  CD       -46.9520   98.3650   56.3280 C.3   122  LYS122      0.0206
     50  CE       -45.8690   99.4060   56.5670 C.3   122  LYS122      0.1093
     51  NZ       -45.7510  100.3550   55.4240 N.3   122  LYS122     -0.1314
     52  N        -47.1340   95.7590   49.1120 N.3   156  PHE156     -0.1241
     53  CA       -46.3490   96.9740   48.9900 C.3   156  PHE156      0.1605
     54  C        -45.3070   97.0810   50.0950 C.2   156  PHE156      0.2264
     55  O        -45.4110   96.4300   51.1340 O.2   156  PHE156     -0.2867
     56  CB       -47.2570   98.2070   49.0430 C.3   156  PHE156      0.0534
     57  CG       -47.8950   98.4510   50.3910 C.ar  156  PHE156     -0.0203
     58  CD1      -48.9460   97.6610   50.8350 C.ar  156  PHE156     -0.0042
     59  CD2      -47.4660   99.4970   51.1950 C.ar  156  PHE156     -0.0042
     60  CE1      -49.5670   97.9100   52.0580 C.ar  156  PHE156     -0.0003
     61  CE2      -48.0760   99.7540   52.4180 C.ar  156  PHE156     -0.0003
     62  CZ       -49.1360   98.9530   52.8500 C.ar  156  PHE156     -0.0000
     63  N        -42.3120  100.1670   51.7640 N.3   158  HIS158     -0.1241
     64  CA       -41.9590  101.5760   51.7490 C.3   158  HIS158      0.1621
     65  C        -40.4460  101.7460   51.7100 C.2   158  HIS158      0.2264
     66  O        -39.7320  101.2370   52.5730 O.2   158  HIS158     -0.2867
     67  CB       -42.5530  102.2670   52.9770 C.3   158  HIS158      0.0745
     68  CG       -42.6320  103.7560   52.8510 C.ar  158  HIS158      0.0817
     69  ND1      -42.9740  104.3850   51.6720 N.ar  158  HIS158     -0.2268
     70  CD2      -42.4280  104.7400   53.7580 C.ar  158  HIS158      0.1154
     71  CE1      -42.9730  105.6930   51.8600 C.ar  158  HIS158      0.1986
     72  NE2      -42.6460  105.9340   53.1160 N.ar  158  HIS158     -0.2212
     73  N        -42.5800  105.8970   46.3320 N.3   194  ASN194     -0.1225
     74  CA       -43.0330  107.0710   47.0630 C.3   194  ASN194      0.1785
     75  C        -42.5430  108.1500   46.0960 C.2   194  ASN194      0.2598
     76  O        -42.0700  107.8110   45.0040 O.2   194  ASN194     -0.2718
     77  CB       -42.3350  107.1800   48.4180 C.3   194  ASN194      0.1169
     78  CG       -40.8280  107.1070   48.3020 C.2   194  ASN194      0.2627
     79  OD1      -40.2890  106.9470   47.2110 O.2   194  ASN194     -0.2716
     80  ND2      -40.1400  107.2220   49.4290 N.am  194  ASN194     -0.0877
     81  N        -42.6140  109.4240   46.4710 N.am  195  SER195     -0.1938
     82  CA       -42.1990  110.4840   45.5490 C.3   195  SER195      0.2040
     83  C        -40.7950  110.3920   44.9480 C.2   195  SER195      0.2485
     84  O        -40.6460  110.3890   43.7280 O.2   195  SER195     -0.2729
     85  CB       -42.3890  111.8610   46.1940 C.3   195  SER195      0.2129
     86  OG       -43.7600  112.2220   46.2160 O.3   195  SER195     -0.2179
     87  N        -39.7490  110.3210   45.7880 N.am  196  PRO196     -0.2726
     88  CA       -38.3830  110.2360   45.2510 C.3   196  PRO196      0.1402
     89  C        -38.1470  109.0610   44.3020 C.2   196  PRO196      0.2269
     90  O        -37.4810  109.2050   43.2810 O.2   196  PRO196     -0.2865
     91  CB       -37.5120  110.1540   46.5100 C.3   196  PRO196      0.0296
     92  CG       -38.4310  109.5250   47.5250 C.3   196  PRO196      0.0237
     93  CD       -39.7460  110.2160   47.2570 C.3   196  PRO196      0.0939
     94  N        -47.2990  105.4230   44.4930 N.3   210  ARG210     -0.1231
     95  CA       -47.9900  106.2130   45.4930 C.3   210  ARG210      0.1679
     96  C        -47.1630  107.3270   46.0990 C.2   210  ARG210      0.2434
     97  O        -46.5680  107.1870   47.1670 O.2   210  ARG210     -0.2733
     98  CB       -48.5690  105.3210   46.5930 C.3   210  ARG210      0.0321
     99  CG       -47.5770  104.4140   47.2320 C.3   210  ARG210      0.0489
    100  CD       -48.0450  103.9390   48.5960 C.3   210  ARG210      0.2205
    101  NE       -46.8500  103.6820   49.3810 N.pl3 210  ARG210     -0.0865
    102  CZ       -46.0000  102.6940   49.1380 C.cat 210  ARG210      0.5346
    103  NH1      -46.2290  101.8440   48.1440 N.pl3 210  ARG210      0.1354
    104  NH2      -44.8830  102.6020   49.8430 N.pl3 210  ARG210      0.1354
    105  N        -47.1030  108.4600   45.3970 N.am  211  PRO211     -0.2718
    106  CA       -46.3470  109.6120   45.8800 C.3   211  PRO211      0.1535
    107  C        -47.2650  110.5070   46.7070 C.2   211  PRO211      0.2599
    108  O        -48.4910  110.4890   46.5350 O.2   211  PRO211     -0.2715
    109  CB       -45.8970  110.2920   44.5940 C.3   211  PRO211      0.0310
    110  CG       -47.0640  110.0390   43.6680 C.3   211  PRO211      0.0237
    111  CD       -47.4250  108.5930   43.9620 C.3   211  PRO211      0.0939
    112  N        -46.6590  111.2670   47.6130 N.am  212  GLY212     -0.1941
    113  CA       -47.4000  112.1970   48.4400 C.3   212  GLY212      0.2014
    114  C        -46.7890  113.5780   48.2310 C.2   212  GLY212      0.2638
    115  O        -47.4100  114.4650   47.6420 O.2   212  GLY212     -0.2714
    116  N        -45.5500  113.7360   48.6940 N.am  213  LEU213     -0.1977
    117  CA       -44.7950  114.9890   48.6100 C.3   213  LEU213      0.1596
    118  C        -44.9570  115.7770   47.3060 C.2   213  LEU213      0.2287
    119  O        -45.2400  116.9780   47.3320 O.2   213  LEU213     -0.2864
    120  CB       -43.3090  114.6910   48.8430 C.3   213  LEU213      0.0297
    121  CG       -42.3440  115.6910   49.5040 C.3   213  LEU213      0.0022
    122  CD1      -41.5040  116.3770   48.4630 C.3   213  LEU213      0.0001
    123  CD2      -43.1130  116.6820   50.3780 C.3   213  LEU213      0.0001
    124  N        -40.6990  118.1110   54.0510 N.3   329  TYR329     -0.1241
    125  CA       -41.8340  117.3440   54.5670 C.3   329  TYR329      0.1605
    126  C        -42.3160  117.9200   55.9100 C.2   329  TYR329      0.2264
    127  O        -43.5190  118.1180   56.1430 O.2   329  TYR329     -0.2867
    128  CB       -41.4470  115.8800   54.8160 C.3   329  TYR329      0.0534
    129  CG       -41.2430  115.0140   53.5890 C.ar  329  TYR329     -0.0201
    130  CD1      -40.0510  115.0400   52.8820 C.ar  329  TYR329     -0.0009
    131  CD2      -42.2400  114.1480   53.1560 C.ar  329  TYR329     -0.0009
    132  CE1      -39.8540  114.2210   51.7770 C.ar  329  TYR329      0.0417
    133  CE2      -42.0560  113.3300   52.0550 C.ar  329  TYR329      0.0417
    134  CZ       -40.8590  113.3690   51.3690 C.ar  329  TYR329      0.1957
    135  OH       -40.6640  112.5540   50.2710 O.3   329  TYR329     -0.2866
@<TRIPOS>BOND
     1    90    89    2
     2   110   111    1
     3   110   109    1
     4    84    83    2
     5   111   105    1
     6    89    88    1
     7    94    95    1
     8   109   106    1
     9    83    82    1
    10    83    87   am
    11    76    75    2
    12    88    87    1
    13    88    91    1
    14   105   106    1
    15   105    96   am
    16    95    96    1
    17    95    98    1
    18    82    85    1
    19    82    81    1
    20    87    93    1
    21   106   107    1
    22    75    81   am
    23    75    74    1
    24    96    97    2
    25    85    86    1
    26    73    74    1
    27    91    92    1
    28   108   107    2
    29    98    99    1
    30   107   112   am
    31    74    77    1
    32    79    78    2
    33    99   100    1
    34    93    92    1
    35   118   119    2
    36   118   117    1
    37   112   113    1
    38   115   114    2
    39   103   102    1
    40     1     2    1
    41   114   113    1
    42   114   116   am
    43    78    77    1
    44    78    80   am
    45   122   121    1
    46   100   101    1
    47   117   116    1
    48   117   120    1
    49   120   121    1
    50    53    56    1
    51    53    52    1
    52    53    54    1
    53    56    57    1
    54   102   101    2
    55   102   104    1
    56     7     5    1
    57   121   123    1
    58     2     5    1
    59     2     3    1
    60     4     3    2
    61     5     6    1
    62    54    55    2
    63   135   134    1
    64    57    58   ar
    65    57    59   ar
    66    58    60   ar
    67    59    61   ar
    68   134   132   ar
    69   134   133   ar
    70    69    71   ar
    71    69    68   ar
    72    65    64    1
    73    65    66    2
    74    64    63    1
    75    64    67    1
    76   132   130   ar
    77    71    72   ar
    78   133   131   ar
    79    60    62   ar
    80    28    27    1
    81    41    42   ar
    82    41    39   ar
    83    26    27   ar
    84    26    24   ar
    85    61    62   ar
    86    27    25   ar
    87    42    40   ar
    88    24    22   ar
    89    68    67    1
    90    68    70   ar
    91   130   129   ar
    92    25    23   ar
    93    22    23   ar
    94    22    21    1
    95    72    70   ar
    96   131   129   ar
    97    39    36   ar
    98    21    18    1
    99   129   128    1
   100    43    44    1
   101    40    38   ar
   102     8     9    1
   103    44    45    1
   104    44    47    1
   105   124   125    1
   106    45    46    2
   107    17    18    1
   108    36    38   ar
   109    36    34   ar
   110   125   128    1
   111   125   126    1
   112    18    19    1
   113    15    16    1
   114    15    14    1
   115    38    37   ar
   116    20    19    2
   117    47    48    1
   118    48    49    1
   119    11    10    2
   120     9    12    1
   121     9    10    1
   122    13    14    1
   123    13    12    1
   124    51    50    1
   125    34    33    1
   126    34    35   ar
   127    33    30    1
   128   126   127    2
   129    37    35   ar
   130    29    30    1
   131    49    50    1
   132    30    31    1
   133    31    32    2
