@<TRIPOS>MOLECULE
tmp/2dy5A01.pdb
 166 160 0 0 0
SMALL
GASTEIGER

@<TRIPOS>ATOM
      1  N         36.8030  -30.4530   22.5870 N.3    16  HIS16      -0.1241
      2  CA        36.1290  -30.1570   23.8510 C.3    16  HIS16       0.1621
      3  C         37.1620  -30.1430   24.9680 C.2    16  HIS16       0.2264
      4  O         37.1330  -29.2710   25.8460 O.2    16  HIS16      -0.2867
      5  CB        35.0520  -31.1940   24.1790 C.3    16  HIS16       0.0745
      6  CG        34.3100  -30.9090   25.4530 C.ar   16  HIS16       0.0817
      7  ND1       34.8270  -31.1940   26.7000 N.ar   16  HIS16      -0.2268
      8  CD2       33.1160  -30.3080   25.6730 C.ar   16  HIS16       0.1154
      9  CE1       33.9860  -30.7780   27.6310 C.ar   16  HIS16       0.1986
     10  NE2       32.9390  -30.2370   27.0350 N.ar   16  HIS16      -0.2212
     11  N         41.2670  -19.5440   30.5250 N.3    24  PHE24      -0.1227
     12  CA        40.1700  -18.8860   31.2220 C.3    24  PHE24       0.1736
     13  C         39.3490  -19.8670   32.0620 C.2    24  PHE24       0.2595
     14  O         39.0550  -19.5980   33.2260 O.2    24  PHE24      -0.2718
     15  CB        39.2470  -18.1860   30.2330 C.3    24  PHE24       0.0547
     16  CG        38.1930  -17.3550   30.8900 C.ar   24  PHE24      -0.0202
     17  CD1       38.5070  -16.1100   31.4200 C.ar   24  PHE24      -0.0042
     18  CD2       36.8930  -17.8280   31.0100 C.ar   24  PHE24      -0.0042
     19  CE1       37.5360  -15.3420   32.0660 C.ar   24  PHE24      -0.0003
     20  CE2       35.9140  -17.0730   31.6530 C.ar   24  PHE24      -0.0003
     21  CZ        36.2360  -15.8250   32.1830 C.ar   24  PHE24      -0.0000
     22  N         38.9760  -20.9990   31.4670 N.am   25  MET25      -0.1979
     23  CA        38.1870  -22.0090   32.1660 C.3    25  MET25       0.1605
     24  C         38.9580  -22.5620   33.3370 C.2    25  MET25       0.2287
     25  O         38.4110  -22.7380   34.4200 O.2    25  MET25      -0.2864
     26  CB        37.8110  -23.1580   31.2320 C.3    25  MET25       0.0413
     27  CG        36.7340  -22.8040   30.2130 C.3    25  MET25       0.0598
     28  SD        35.2470  -22.0760   30.9560 S.3    25  MET25      -0.1393
     29  CE        35.2230  -20.5070   30.1500 C.3    25  MET25       0.0692
     30  N         38.4890  -20.2430   36.0630 N.3    28  PHE28      -0.1241
     31  CA        37.1520  -20.2400   36.6150 C.3    28  PHE28       0.1605
     32  C         36.9430  -21.3850   37.5880 C.2    28  PHE28       0.2264
     33  O         36.3340  -21.2060   38.6350 O.2    28  PHE28      -0.2867
     34  CB        36.1240  -20.3190   35.4920 C.3    28  PHE28       0.0534
     35  CG        34.7200  -20.0910   35.9500 C.ar   28  PHE28      -0.0203
     36  CD1       33.9020  -21.1600   36.2860 C.ar   28  PHE28      -0.0042
     37  CD2       34.2210  -18.8030   36.0780 C.ar   28  PHE28      -0.0042
     38  CE1       32.6040  -20.9490   36.7450 C.ar   28  PHE28      -0.0003
     39  CE2       32.9280  -18.5810   36.5360 C.ar   28  PHE28      -0.0003
     40  CZ        32.1190  -19.6550   36.8690 C.ar   28  PHE28      -0.0000
     41  N         37.4850  -15.9170   40.1230 N.3    33  VAL33      -0.1245
     42  CA        36.6520  -15.3100   39.1070 C.3    33  VAL33       0.1561
     43  C         36.0160  -14.0680   39.7010 C.2    33  VAL33       0.2260
     44  O         35.1240  -14.1570   40.5430 O.2    33  VAL33      -0.2867
     45  CB        35.5690  -16.3110   38.6230 C.3    33  VAL33       0.0252
     46  CG1       34.9680  -17.0460   39.8070 C.3    33  VAL33       0.0019
     47  CG2       34.4880  -15.5790   37.8420 C.3    33  VAL33       0.0019
     48  N         33.3790  -12.0750   35.1360 N.3    38  PHE38      -0.1241
     49  CA        32.1130  -12.7720   35.0160 C.3    38  PHE38       0.1605
     50  C         31.1230  -11.9370   34.2050 C.2    38  PHE38       0.2264
     51  O         30.4930  -12.4460   33.2830 O.2    38  PHE38      -0.2867
     52  CB        31.5380  -13.0620   36.3940 C.3    38  PHE38       0.0534
     53  CG        30.4320  -14.0510   36.3700 C.ar   38  PHE38      -0.0203
     54  CD1       30.6930  -15.3830   36.0890 C.ar   38  PHE38      -0.0042
     55  CD2       29.1190  -13.6480   36.5690 C.ar   38  PHE38      -0.0042
     56  CE1       29.6700  -16.3070   36.0020 C.ar   38  PHE38      -0.0003
     57  CE2       28.0780  -14.5650   36.4820 C.ar   38  PHE38      -0.0003
     58  CZ        28.3570  -15.9020   36.1970 C.ar   38  PHE38      -0.0000
     59  N         31.8490  -12.1680   30.6020 N.3    41  VAL41      -0.1231
     60  CA        31.4070  -13.4140   29.9840 C.3    41  VAL41       0.1692
     61  C         29.9120  -13.3610   29.7280 C.2    41  VAL41       0.2591
     62  O         29.4560  -13.6400   28.6270 O.2    41  VAL41      -0.2718
     63  CB        31.6970  -14.6170   30.8870 C.3    41  VAL41       0.0266
     64  CG1       31.2730  -15.8870   30.1970 C.3    41  VAL41       0.0020
     65  CG2       33.1680  -14.6750   31.2190 C.3    41  VAL41       0.0020
     66  N         29.1540  -12.9890   30.7530 N.am   42  MET42      -0.1979
     67  CA        27.7040  -12.8940   30.6410 C.3    42  MET42       0.1605
     68  C         27.2470  -11.9250   29.5580 C.2    42  MET42       0.2287
     69  O         26.2990  -12.2100   28.8370 O.2    42  MET42      -0.2864
     70  CB        27.0970  -12.4790   31.9790 C.3    42  MET42       0.0413
     71  CG        27.2520  -13.5190   33.0820 C.3    42  MET42       0.0598
     72  SD        26.4760  -15.0920   32.6620 S.3    42  MET42      -0.1393
     73  CE        27.9090  -16.0860   32.2230 C.3    42  MET42       0.0692
     74  N         27.7750  -13.6140   26.2400 N.3    45  LEU45      -0.1245
     75  CA        26.7860  -14.6470   25.9650 C.3    45  LEU45       0.1561
     76  C         25.4660  -14.0120   25.5410 C.2    45  LEU45       0.2260
     77  O         24.7690  -14.5380   24.6830 O.2    45  LEU45      -0.2867
     78  CB        26.5810  -15.5460   27.1930 C.3    45  LEU45       0.0270
     79  CG        27.8350  -16.3280   27.5990 C.3    45  LEU45       0.0019
     80  CD1       27.4800  -17.4020   28.6060 C.3    45  LEU45       0.0001
     81  CD2       28.4750  -16.9500   26.3640 C.3    45  LEU45       0.0001
     82  N         26.2200  -27.2610   20.0600 N.3   126  THR126     -0.1203
     83  CA        27.3390  -26.6800   20.7940 C.3   126  THR126      0.1994
     84  C         26.8910  -25.8280   21.9670 C.2   126  THR126      0.2617
     85  O         27.4930  -25.8530   23.0460 O.2   126  THR126     -0.2717
     86  CB        28.1800  -25.7910   19.8630 C.3   126  THR126      0.1784
     87  OG1       28.7190  -26.5930   18.8110 O.3   126  THR126     -0.2211
     88  CG2       29.3170  -25.1190   20.6150 C.3   126  THR126      0.0376
     89  N         25.8320  -25.0600   21.7460 N.am  127  ARG127     -0.1979
     90  CA        25.3200  -24.1830   22.7770 C.3   127  ARG127      0.1597
     91  C         24.3470  -24.8200   23.7750 C.2   127  ARG127      0.2287
     92  O         24.6230  -24.8400   24.9750 O.2   127  ARG127     -0.2864
     93  CB        24.6730  -22.9710   22.1190 C.3   127  ARG127      0.0334
     94  CG        25.6660  -22.0300   21.4600 C.3   127  ARG127      0.0492
     95  CD        25.8320  -20.7750   22.2800 C.3   127  ARG127      0.2205
     96  NE        26.4530  -21.0240   23.5790 N.pl3 127  ARG127     -0.0865
     97  CZ        27.7630  -20.9460   23.8090 C.cat 127  ARG127      0.5346
     98  NH1       28.5880  -20.6230   22.8190 N.pl3 127  ARG127      0.1354
     99  NH2       28.2520  -21.1850   25.0230 N.pl3 127  ARG127      0.1354
    100  N         25.3160  -28.2880   25.3820 N.3   130  GLY130     -0.1210
    101  CA        26.3520  -28.0390   26.3590 C.3   130  GLY130      0.1956
    102  C         25.7250  -27.5320   27.6400 C.2   130  GLY130      0.2611
    103  O         26.0260  -28.0250   28.7210 O.2   130  GLY130     -0.2717
    104  N         24.8380  -26.5500   27.5160 N.am  131  ASP131     -0.1973
    105  CA        24.1670  -25.9560   28.6730 C.3   131  ASP131      0.1709
    106  C         23.3690  -26.9430   29.5300 C.2   131  ASP131      0.2293
    107  O         23.1170  -26.6830   30.7060 O.2   131  ASP131     -0.2864
    108  CB        23.2480  -24.8160   28.2210 C.3   131  ASP131      0.1436
    109  CG        24.0170  -23.6390   27.6250 C.2   131  ASP131      0.3671
    110  OD1       23.3770  -22.6110   27.3090 O.co2 131  ASP131     -0.2456
    111  OD2       25.2570  -23.7370   27.4700 O.co2 131  ASP131     -0.2456
    112  N         24.4330  -30.0020   30.1380 N.3   133  SER133     -0.1202
    113  CA        25.3700  -31.0200   30.6080 C.3   133  SER133      0.2020
    114  C         26.2620  -30.6100   31.7730 C.2   133  SER133      0.2619
    115  O         26.7100  -31.4590   32.5470 O.2   133  SER133     -0.2717
    116  CB        26.2650  -31.4660   29.4570 C.3   133  SER133      0.2103
    117  OG        25.5050  -31.7130   28.2950 O.3   133  SER133     -0.2182
    118  N         26.5340  -29.3180   31.9030 N.am  134  GLY134     -0.1942
    119  CA        27.4050  -28.8930   32.9820 C.3   134  GLY134      0.2014
    120  C         27.2090  -27.4920   33.5260 C.2   134  GLY134      0.2639
    121  O         28.1420  -26.9030   34.0920 O.2   134  GLY134     -0.2714
    122  N         26.0080  -26.9490   33.3430 N.am  135  GLY135     -0.1954
    123  CA        25.7070  -25.6320   33.8720 C.3   135  GLY135      0.1869
    124  C         25.2550  -25.8590   35.3080 C.2   135  GLY135      0.2309
    125  O         24.4680  -25.0890   35.8600 O.2   135  GLY135     -0.2863
    126  N         29.6610  -25.5550   37.1290 N.3   138  LEU138     -0.1245
    127  CA        30.1930  -24.2060   37.0200 C.3   138  LEU138      0.1561
    128  C         29.2770  -23.2260   37.7220 C.2   138  LEU138      0.2260
    129  O         29.7130  -22.1810   38.2070 O.2   138  LEU138     -0.2867
    130  CB        30.3600  -23.8400   35.5520 C.3   138  LEU138      0.0270
    131  CG        31.5140  -24.6550   34.9690 C.3   138  LEU138      0.0019
    132  CD1       31.1470  -25.1900   33.6070 C.3   138  LEU138      0.0001
    133  CD2       32.7600  -23.7970   34.9310 C.3   138  LEU138      0.0001
    134  N         20.5830  -17.3580   33.6130 N.3   157  PHE157     -0.1227
    135  CA        21.1360  -18.0880   32.4860 C.3   157  PHE157      0.1736
    136  C         21.3450  -19.5840   32.7530 C.2   157  PHE157      0.2595
    137  O         21.1780  -20.4110   31.8590 O.2   157  PHE157     -0.2718
    138  CB        22.4790  -17.4700   32.0960 C.3   157  PHE157      0.0547
    139  CG        23.1860  -18.2110   31.0090 C.ar  157  PHE157     -0.0202
    140  CD1       22.7690  -18.0970   29.6910 C.ar  157  PHE157     -0.0042
    141  CD2       24.2360  -19.0670   31.3060 C.ar  157  PHE157     -0.0042
    142  CE1       23.3880  -18.8320   28.6810 C.ar  157  PHE157     -0.0003
    143  CE2       24.8610  -19.8060   30.3040 C.ar  157  PHE157     -0.0003
    144  CZ        24.4340  -19.6880   28.9890 C.ar  157  PHE157     -0.0000
    145  N         21.7140  -19.9210   33.9830 N.am  158  PHE158     -0.1976
    146  CA        21.9970  -21.2960   34.3570 C.3   158  PHE158      0.1639
    147  C         20.8080  -22.1130   34.7910 C.2   158  PHE158      0.2290
    148  O         20.9600  -23.2780   35.1240 O.2   158  PHE158     -0.2864
    149  CB        23.0320  -21.3150   35.4740 C.3   158  PHE158      0.0560
    150  CG        24.3720  -20.7970   35.0600 C.ar  158  PHE158     -0.0200
    151  CD1       25.3020  -21.6410   34.4560 C.ar  158  PHE158     -0.0042
    152  CD2       24.6930  -19.4490   35.2380 C.ar  158  PHE158     -0.0042
    153  CE1       26.5300  -21.1530   34.0330 C.ar  158  PHE158     -0.0003
    154  CE2       25.9190  -18.9450   34.8170 C.ar  158  PHE158     -0.0003
    155  CZ        26.8420  -19.7980   34.2130 C.ar  158  PHE158     -0.0000
    156  N         37.3470  -17.0420   24.7190 N.3   205  PHE205     -0.1241
    157  CA        37.9130  -17.1530   26.0510 C.3   205  PHE205      0.1605
    158  C         39.3470  -16.6520   26.1120 C.2   205  PHE205      0.2264
    159  O         39.7860  -16.1420   27.1410 O.2   205  PHE205     -0.2867
    160  CB        37.8320  -18.5970   26.5430 C.3   205  PHE205      0.0534
    161  CG        36.4300  -19.0830   26.7210 C.ar  205  PHE205     -0.0203
    162  CD1       35.4990  -18.3050   27.4120 C.ar  205  PHE205     -0.0042
    163  CD2       36.0190  -20.2920   26.1690 C.ar  205  PHE205     -0.0042
    164  CE1       34.1820  -18.7210   27.5460 C.ar  205  PHE205     -0.0003
    165  CE2       34.6980  -20.7170   26.3000 C.ar  205  PHE205     -0.0003
    166  CZ        33.7800  -19.9260   26.9900 C.ar  205  PHE205     -0.0000
@<TRIPOS>BOND
     1    87    86    1
     2    86    88    1
     3    86    83    1
     4    82    83    1
     5    83    84    1
     6    94    93    1
     7    94    95    1
     8    89    84   am
     9    89    90    1
    10    84    85    2
    11    93    90    1
    12    95    96    1
    13     1     2    1
    14    90    91    1
    15    98    97    1
    16    96    97    2
    17    91    92    2
    18    97    99    1
    19     2     5    1
    20     2     3    1
    21     5     6    1
    22    77    76    2
    23   156   157    1
    24     3     4    2
    25   100   101    1
    26     6     8   ar
    27     6     7   ar
    28    76    75    1
    29     8    10   ar
    30    75    74    1
    31    75    78    1
    32   157   158    1
    33   157   160    1
    34   158   159    2
    35   163   165   ar
    36   163   161   ar
    37   165   166   ar
    38   101   102    1
    39    81    79    1
    40   160   161    1
    41     7     9   ar
    42   161   162   ar
    43   166   164   ar
    44    10     9   ar
    45    78    79    1
    46   110   109   ar
    47   162   164   ar
    48   111   109   ar
    49   104   102   am
    50   104   105    1
    51    79    80    1
    52   109   108    1
    53   102   103    2
    54   108   105    1
    55   117   116    1
    56    62    61    2
    57   105   106    1
    58   142   144   ar
    59   142   140   ar
    60    69    68    2
    61   144   143   ar
    62   116   113    1
    63   106   107    2
    64    68    67    1
    65   140   139   ar
    66    61    60    1
    67    61    66   am
    68    60    59    1
    69    60    63    1
    70   112   113    1
    71    29    28    1
    72    64    63    1
    73    27    28    1
    74    27    26    1
    75    15    16    1
    76    15    12    1
    77   143   141   ar
    78    11    12    1
    79   113   114    1
    80    67    66    1
    81    67    70    1
    82    63    65    1
    83    16    18   ar
    84    16    17   ar
    85   139   141   ar
    86   139   138    1
    87    18    20   ar
    88    12    13    1
    89    26    23    1
    90    17    19   ar
    91    22    13   am
    92    22    23    1
    93    20    21   ar
    94   114   118   am
    95   114   115    2
    96   137   136    2
    97   118   119    1
    98    70    71    1
    99    13    14    2
   100    19    21   ar
   101   138   135    1
   102    23    24    1
   103    73    72    1
   104   135   136    1
   105   135   134    1
   106    72    71    1
   107   136   145   am
   108   119   120    1
   109    51    50    2
   110    24    25    2
   111   122   120   am
   112   122   123    1
   113   120   121    2
   114   132   131    1
   115   123   124    1
   116   145   146    1
   117   153   155   ar
   118   153   151   ar
   119    50    49    1
   120   155   154   ar
   121   146   147    1
   122   146   149    1
   123   151   150   ar
   124   147   148    2
   125   154   152   ar
   126   133   131    1
   127   131   130    1
   128    49    48    1
   129    49    52    1
   130   150   152   ar
   131   150   149    1
   132   124   125    2
   133    34    35    1
   134    34    31    1
   135   130   127    1
   136    35    37   ar
   137    35    36   ar
   138    56    54   ar
   139    56    58   ar
   140    30    31    1
   141    37    39   ar
   142    54    53   ar
   143    58    57   ar
   144    36    38   ar
   145    53    52    1
   146    53    55   ar
   147    57    55   ar
   148    39    40   ar
   149    31    32    1
   150    38    40   ar
   151   127   126    1
   152   127   128    1
   153    32    33    2
   154   128   129    2
   155    47    45    1
   156    45    42    1
   157    45    46    1
   158    42    43    1
   159    42    41    1
   160    43    44    2
