@<TRIPOS>MOLECULE
tmp/2dyaB00.pdb
 161 152 0 0 0
SMALL
GASTEIGER

@<TRIPOS>ATOM
      1  N         37.5440   39.6570   20.5960 N.3    11  LYS11      -0.1245
      2  CA        38.7270   40.4930   20.7450 C.3    11  LYS11       0.1561
      3  C         39.7250   40.4070   19.5940 C.2    11  LYS11       0.2260
      4  O         39.7020   39.4640   18.8030 O.2    11  LYS11      -0.2867
      5  CB        39.4100   40.1540   22.0710 C.3    11  LYS11       0.0271
      6  CG        38.4920   40.2920   23.2830 C.3    11  LYS11       0.0035
      7  CD        39.2540   40.0380   24.5750 C.3    11  LYS11       0.0206
      8  CE        38.3610   40.2230   25.7910 C.3    11  LYS11       0.1093
      9  NZ        39.1220   40.0350   27.0610 N.3    11  LYS11      -0.1314
     10  N         35.3710   48.9150   30.0410 N.3    51  TYR51      -0.1241
     11  CA        36.1320   48.3450   31.1520 C.3    51  TYR51       0.1605
     12  C         36.2700   49.3050   32.3330 C.2    51  TYR51       0.2264
     13  O         37.2700   49.2870   33.0540 O.2    51  TYR51      -0.2867
     14  CB        37.5260   47.9240   30.6690 C.3    51  TYR51       0.0534
     15  CG        37.5380   46.6510   29.8520 C.ar   51  TYR51      -0.0201
     16  CD1       36.9300   45.4900   30.3290 C.ar   51  TYR51      -0.0009
     17  CD2       38.1830   46.5960   28.6150 C.ar   51  TYR51      -0.0009
     18  CE1       36.9640   44.3020   29.5980 C.ar   51  TYR51       0.0417
     19  CE2       38.2250   45.4120   27.8740 C.ar   51  TYR51       0.0417
     20  CZ        37.6140   44.2680   28.3730 C.ar   51  TYR51       0.1957
     21  OH        37.6680   43.0840   27.6610 O.3    51  TYR51      -0.2866
     22  N         35.1060   49.3290   35.2780 N.3    53  GLU53      -0.1231
     23  CA        35.3330   48.6980   36.5790 C.3    53  GLU53       0.1699
     24  C         36.8000   48.3530   36.8420 C.2    53  GLU53       0.2592
     25  O         37.1630   48.0190   37.9680 O.2    53  GLU53      -0.2718
     26  CB        34.4980   47.4180   36.7020 C.3    53  GLU53       0.0402
     27  CG        35.0650   46.2450   35.9100 C.3    53  GLU53       0.1161
     28  CD        34.2650   44.9660   36.0740 C.2    53  GLU53       0.3649
     29  OE1       34.0520   44.5320   37.2280 O.co2  53  GLU53      -0.2457
     30  OE2       33.8580   44.3900   35.0420 O.co2  53  GLU53      -0.2457
     31  N         37.6390   48.4300   35.8100 N.am   54  HIS54      -0.1976
     32  CA        39.0560   48.1000   35.9580 C.3    54  HIS54       0.1656
     33  C         39.9800   49.3040   35.8230 C.2    54  HIS54       0.2291
     34  O         41.1980   49.1500   35.7550 O.2    54  HIS54      -0.2864
     35  CB        39.4680   47.0480   34.9210 C.3    54  HIS54       0.0771
     36  CG        38.6470   45.7970   34.9660 C.ar   54  HIS54       0.0820
     37  ND1       38.4780   45.0570   36.1160 N.ar   54  HIS54      -0.2267
     38  CD2       37.9620   45.1450   33.9960 C.ar   54  HIS54       0.1154
     39  CE1       37.7250   44.0040   35.8540 C.ar   54  HIS54       0.1986
     40  NE2       37.3980   44.0340   34.5740 N.ar   54  HIS54      -0.2212
     41  N         42.9260   49.4390   38.2240 N.3    57  LYS57      -0.1245
     42  CA        43.7390   48.2370   38.3450 C.3    57  LYS57       0.1561
     43  C         45.0410   48.3520   37.5500 C.2    57  LYS57       0.2260
     44  O         45.0980   49.0240   36.5190 O.2    57  LYS57      -0.2867
     45  CB        42.9230   47.0190   37.9070 C.3    57  LYS57       0.0271
     46  CG        41.6970   46.8060   38.7840 C.3    57  LYS57       0.0035
     47  CD        40.8560   45.6220   38.3480 C.3    57  LYS57       0.0206
     48  CE        39.6010   45.5200   39.2000 C.3    57  LYS57       0.1093
     49  NZ        38.7680   44.3330   38.8670 N.3    57  LYS57      -0.1314
     50  N         46.7120   46.3490   35.5130 N.3    59  PHE59      -0.1241
     51  CA        46.7160   45.8810   34.1250 C.3    59  PHE59       0.1605
     52  C         45.7830   46.6430   33.1850 C.2    59  PHE59       0.2264
     53  O         45.6430   46.2800   32.0160 O.2    59  PHE59      -0.2867
     54  CB        46.3550   44.3970   34.0930 C.3    59  PHE59       0.0534
     55  CG        44.9640   44.1020   34.5790 C.ar   59  PHE59      -0.0203
     56  CD1       43.8660   44.2700   33.7370 C.ar   59  PHE59      -0.0042
     57  CD2       44.7480   43.6620   35.8830 C.ar   59  PHE59      -0.0042
     58  CE1       42.5720   44.0010   34.1870 C.ar   59  PHE59      -0.0003
     59  CE2       43.4630   43.3910   36.3410 C.ar   59  PHE59      -0.0003
     60  CZ        42.3700   43.5610   35.4920 C.ar   59  PHE59      -0.0000
     61  N         45.1950   46.3090   28.9760 N.3    63  LEU63      -0.1245
     62  CA        43.8960   45.8350   28.5300 C.3    63  LEU63       0.1561
     63  C         43.3380   46.7590   27.4500 C.2    63  LEU63       0.2260
     64  O         42.8010   46.2980   26.4420 O.2    63  LEU63      -0.2867
     65  CB        42.9360   45.7640   29.7210 C.3    63  LEU63       0.0270
     66  CG        41.5050   45.2960   29.4470 C.3    63  LEU63       0.0019
     67  CD1       41.5180   43.9560   28.7190 C.3    63  LEU63       0.0001
     68  CD2       40.7510   45.1900   30.7630 C.3    63  LEU63       0.0001
     69  N         45.2690   46.3480   24.2400 N.3    66  TYR66      -0.1241
     70  CA        44.8780   45.0520   23.7050 C.3    66  TYR66       0.1605
     71  C         43.5280   45.0970   22.9810 C.2    66  TYR66       0.2264
     72  O         43.4510   44.7880   21.7950 O.2    66  TYR66      -0.2867
     73  CB        44.8640   44.0270   24.8530 C.3    66  TYR66       0.0534
     74  CG        44.1340   42.7290   24.5760 C.ar   66  TYR66      -0.0201
     75  CD1       44.3740   41.9920   23.4120 C.ar   66  TYR66      -0.0009
     76  CD2       43.1990   42.2340   25.4850 C.ar   66  TYR66      -0.0009
     77  CE1       43.6920   40.7970   23.1630 C.ar   66  TYR66       0.0417
     78  CE2       42.5190   41.0400   25.2470 C.ar   66  TYR66       0.0417
     79  CZ        42.7670   40.3310   24.0840 C.ar   66  TYR66       0.1957
     80  OH        42.0670   39.1710   23.8410 O.3    66  TYR66      -0.2866
     81  N         28.9030   32.8760   29.5810 N.3    87  ARG87      -0.1245
     82  CA        30.0590   32.9820   30.4690 C.3    87  ARG87       0.1563
     83  C         30.6890   31.6000   30.6370 C.2    87  ARG87       0.2260
     84  O         31.9140   31.4600   30.6320 O.2    87  ARG87      -0.2867
     85  CB        29.6440   33.5390   31.8340 C.3    87  ARG87       0.0307
     86  CG        29.3150   35.0210   31.8260 C.3    87  ARG87       0.0489
     87  CD        30.5710   35.8930   31.7650 C.3    87  ARG87       0.2205
     88  NE        31.2910   35.9100   33.0370 N.pl3  87  ARG87      -0.0865
     89  CZ        32.3490   36.6780   33.2910 C.cat  87  ARG87       0.5346
     90  NH1       32.8150   37.4980   32.3590 N.pl3  87  ARG87       0.1354
     91  NH2       32.9440   36.6210   34.4780 N.pl3  87  ARG87       0.1354
     92  N         38.9720   33.2130   32.8220 N.3    93  THR93      -0.1218
     93  CA        39.6240   34.4400   32.3440 C.3    93  THR93       0.1862
     94  C         40.9990   34.2000   31.7130 C.2    93  THR93       0.2287
     95  O         41.2720   34.6680   30.6000 O.2    93  THR93      -0.2866
     96  CB        39.7840   35.4550   33.4960 C.3    93  THR93       0.1770
     97  OG1       38.5100   35.6670   34.1170 O.3    93  THR93      -0.2211
     98  CG2       40.3270   36.7860   32.9710 C.3    93  THR93       0.0375
     99  N         37.8410   29.8300   25.3820 N.3   104  ARG104     -0.1245
    100  CA        39.1840   30.1830   25.8340 C.3   104  ARG104      0.1563
    101  C         40.0160   28.9140   26.0220 C.2   104  ARG104      0.2260
    102  O         41.2050   28.8890   25.7160 O.2   104  ARG104     -0.2867
    103  CB        39.1040   30.9730   27.1450 C.3   104  ARG104      0.0307
    104  CG        38.5050   32.3610   26.9690 C.3   104  ARG104      0.0489
    105  CD        38.1550   33.0170   28.2910 C.3   104  ARG104      0.2205
    106  NE        37.7950   34.4190   28.0940 N.pl3 104  ARG104     -0.0865
    107  CZ        37.2180   35.1850   29.0130 C.cat 104  ARG104      0.5346
    108  NH1       36.9220   34.6880   30.2060 N.pl3 104  ARG104      0.1354
    109  NH2       36.9580   36.4570   28.7410 N.pl3 104  ARG104      0.1354
    110  N         51.0220   41.9410   27.3930 N.3   113  ASP113     -0.1225
    111  CA        51.0100   42.5930   28.7030 C.3   113  ASP113      0.1805
    112  C         49.5950   42.4370   29.2570 C.2   113  ASP113      0.2598
    113  O         49.3520   42.6140   30.4480 O.2   113  ASP113     -0.2718
    114  CB        51.3810   44.0810   28.6030 C.3   113  ASP113      0.1424
    115  CG        52.8430   44.2960   28.2300 C.2   113  ASP113      0.3668
    116  OD1       53.7110   43.5840   28.7870 O.co2 113  ASP113     -0.2456
    117  OD2       53.1230   45.1820   27.3900 O.co2 113  ASP113     -0.2456
    118  N         48.6650   42.0990   28.3720 N.am  114  ALA114     -0.1966
    119  CA        47.2770   41.8710   28.7540 C.3   114  ALA114      0.1728
    120  C         47.0300   40.3720   28.6160 C.2   114  ALA114      0.2616
    121  O         47.6950   39.7020   27.8270 O.2   114  ALA114     -0.2715
    122  CB        46.3330   42.6480   27.8360 C.3   114  ALA114      0.0334
    123  N         46.0980   39.8410   29.3960 N.am  115  ILE115     -0.1977
    124  CA        45.7820   38.4180   29.3170 C.3   115  ILE115      0.1596
    125  C         44.8440   38.2300   28.1230 C.2   115  ILE115      0.2287
    126  O         43.6220   38.3140   28.2550 O.2   115  ILE115     -0.2864
    127  CB        45.0970   37.9120   30.6200 C.3   115  ILE115      0.0276
    128  CG1       46.0550   38.0690   31.8080 C.3   115  ILE115      0.0022
    129  CG2       44.6840   36.4470   30.4740 C.3   115  ILE115      0.0022
    130  CD1       47.3380   37.2850   31.6800 C.3   115  ILE115      0.0001
    131  N         42.4930   36.7240   25.8630 N.3   117  ASN117     -0.1240
    132  CA        41.6220   35.5650   26.0240 C.3   117  ASN117      0.1653
    133  C         40.4780   35.3790   25.0220 C.2   117  ASN117      0.2266
    134  O         39.3620   35.0150   25.4000 O.2   117  ASN117     -0.2867
    135  CB        41.0750   35.4960   27.4600 C.3   117  ASN117      0.1155
    136  CG        40.3830   36.7720   27.8950 C.2   117  ASN117      0.2627
    137  OD1       40.0140   37.6110   27.0710 O.2   117  ASN117     -0.2716
    138  ND2       40.1890   36.9170   29.2010 N.am  117  ASN117     -0.0877
    139  N         35.1100   38.3700   25.0140 N.3   120  HIS120     -0.1226
    140  CA        34.5760   39.0030   26.2140 C.3   120  HIS120      0.1752
    141  C         33.1000   38.6210   26.3020 C.2   120  HIS120      0.2595
    142  O         32.4260   38.5070   25.2840 O.2   120  HIS120     -0.2718
    143  CB        34.6680   40.5300   26.1320 C.3   120  HIS120      0.0759
    144  CG        33.7760   41.2300   27.1130 C.ar  120  HIS120      0.0818
    145  ND1       34.1690   41.5250   28.4000 N.ar  120  HIS120     -0.2268
    146  CD2       32.4750   41.6030   27.0220 C.ar  120  HIS120      0.1154
    147  CE1       33.1490   42.0440   29.0610 C.ar  120  HIS120      0.1986
    148  NE2       32.1090   42.1000   28.2480 N.ar  120  HIS120     -0.2212
    149  N         32.6060   38.4300   27.5200 N.am  121  ALA121     -0.1980
    150  CA        31.2050   38.0960   27.7550 C.3   121  ALA121      0.1597
    151  C         30.7450   38.8640   28.9920 C.2   121  ALA121      0.2287
    152  O         31.4730   38.9240   29.9810 O.2   121  ALA121     -0.2864
    153  CB        31.0480   36.5920   27.9820 C.3   121  ALA121      0.0319
    154  N         29.3510   39.7300   32.4590 N.3   123  ASP123     -0.1239
    155  CA        29.3290   38.8910   33.6570 C.3   123  ASP123      0.1674
    156  C         27.9900   38.8320   34.3960 C.2   123  ASP123      0.2266
    157  O         27.7810   37.9500   35.2350 O.2   123  ASP123     -0.2867
    158  CB        30.4180   39.3350   34.6440 C.3   123  ASP123      0.1410
    159  CG        30.2080   40.7540   35.1630 C.2   123  ASP123      0.3668
    160  OD1       29.0540   41.2390   35.1710 O.co2 123  ASP123     -0.2456
    161  OD2       31.2030   41.3820   35.5820 O.co2 123  ASP123     -0.2456
@<TRIPOS>BOND
     1     4     3    2
     2     3     2    1
     3     1     2    1
     4     2     5    1
     5    72    71    2
     6     5     6    1
     7    71    70    1
     8    77    75   ar
     9    77    79   ar
    10     6     7    1
    11    75    74   ar
    12    70    69    1
    13    70    73    1
    14    80    79    1
    15    79    78   ar
    16     7     8    1
    17    74    73    1
    18    74    76   ar
    19   139   140    1
    20   133   134    2
    21   133   132    1
    22    78    76   ar
    23   142   141    2
    24    99   100    1
    25   102   101    2
    26     8     9    1
    27   100   101    1
    28   100   103    1
    29   131   132    1
    30   132   135    1
    31   143   140    1
    32   143   144    1
    33   140   141    1
    34   141   149   am
    35    64    63    2
    36   104   103    1
    37   104   105    1
    38   146   144   ar
    39   146   148   ar
    40   137   136    2
    41   144   145   ar
    42   117   115   ar
    43   110   111    1
    44    63    62    1
    45   135   136    1
    46   149   150    1
    47    21    20    1
    48   150   153    1
    49   150   151    1
    50   121   120    2
    51   122   119    1
    52    19    20   ar
    53    19    17   ar
    54   136   138   am
    55   106   105    1
    56   106   107    2
    57   125   126    2
    58   125   124    1
    59   115   114    1
    60   115   116   ar
    61   148   147   ar
    62   118   119    1
    63   118   112   am
    64    20    18   ar
    65   145   147   ar
    66    62    61    1
    67    62    65    1
    68   114   111    1
    69    17    15   ar
    70   120   119    1
    71   120   123   am
    72   111   112    1
    73    67    66    1
    74   109   107    1
    75   151   152    2
    76   107   108    1
    77   112   113    2
    78   124   123    1
    79   124   127    1
    80    66    65    1
    81    66    68    1
    82    81    82    1
    83    18    16   ar
    84    15    16   ar
    85    15    14    1
    86    10    11    1
    87    82    83    1
    88    82    85    1
    89   129   127    1
    90    95    94    2
    91   127   128    1
    92    84    83    2
    93    14    11    1
    94    11    12    1
    95   130   128    1
    96    94    93    1
    97    87    86    1
    98    87    88    1
    99    86    85    1
   100    53    52    2
   101    12    13    2
   102    93    92    1
   103    93    96    1
   104    90    89    1
   105   154   155    1
   106    98    96    1
   107    88    89    2
   108    52    51    1
   109    89    91    1
   110    96    97    1
   111   155   156    1
   112   155   158    1
   113    56    58   ar
   114    56    55   ar
   115    38    40   ar
   116    38    36   ar
   117    54    51    1
   118    54    55    1
   119    51    50    1
   120    58    60   ar
   121   156   157    2
   122    40    39   ar
   123    55    57   ar
   124   158   159    1
   125    35    36    1
   126    35    32    1
   127    36    37   ar
   128    30    28   ar
   129   159   160   ar
   130   159   161   ar
   131    22    23    1
   132    60    59   ar
   133    34    33    2
   134    31    32    1
   135    31    24   am
   136    33    32    1
   137    39    37   ar
   138    57    59   ar
   139    27    28    1
   140    27    26    1
   141    28    29   ar
   142    44    43    2
   143    23    26    1
   144    23    24    1
   145    24    25    2
   146    43    42    1
   147    45    42    1
   148    45    46    1
   149    41    42    1
   150    47    46    1
   151    47    48    1
   152    49    48    1
