@<TRIPOS>MOLECULE
tmp/2dyhA00.pdb
 158 149 0 0 0
SMALL
GASTEIGER

@<TRIPOS>ATOM
      1  N          0.0410  -47.6400    0.0090 N.3    11  TYR11      -0.1241
      2  CA         1.0140  -48.2080    0.9240 C.3    11  TYR11       0.1605
      3  C          0.8400  -49.7380    1.0670 C.2    11  TYR11       0.2264
      4  O         -0.2860  -50.2330    1.2760 O.2    11  TYR11      -0.2867
      5  CB         0.9020  -47.5580    2.2950 C.3    11  TYR11       0.0534
      6  CG         1.9150  -48.1460    3.2810 C.ar   11  TYR11      -0.0201
      7  CD1        3.2320  -47.6950    3.3020 C.ar   11  TYR11      -0.0009
      8  CD2        1.5420  -49.1500    4.1700 C.ar   11  TYR11      -0.0009
      9  CE1        4.1710  -48.2360    4.2080 C.ar   11  TYR11       0.0417
     10  CE2        2.4630  -49.6980    5.0770 C.ar   11  TYR11       0.0417
     11  CZ         3.7740  -49.2260    5.0780 C.ar   11  TYR11       0.1957
     12  OH         4.6890  -49.7640    5.9650 O.3    11  TYR11      -0.2866
     13  N          1.9950  -42.4380   -0.3050 N.3    40  SER40      -0.1202
     14  CA         0.7610  -42.9290    0.3060 C.3    40  SER40       0.2020
     15  C          0.1200  -41.7400    1.0630 C.2    40  SER40       0.2619
     16  O          0.7920  -40.7320    1.3050 O.2    40  SER40      -0.2717
     17  CB         1.0960  -44.0530    1.2730 C.3    40  SER40       0.2103
     18  OG         2.0570  -43.6030    2.2560 O.3    40  SER40      -0.2182
     19  N         -1.1500  -41.8620    1.4430 N.am   41  GLY41      -0.1956
     20  CA        -1.8020  -40.7870    2.2420 C.3    41  GLY41       0.1869
     21  C         -2.0260  -39.5210    1.4290 C.2    41  GLY41       0.2309
     22  O         -2.1860  -38.4410    1.9900 O.2    41  GLY41      -0.2863
     23  N          6.8770  -43.0850    2.3030 N.3    59  ASN59      -0.1240
     24  CA         7.3740  -43.9880    3.3630 C.3    59  ASN59       0.1653
     25  C          8.3190  -45.0040    2.7190 C.2    59  ASN59       0.2266
     26  O          7.8680  -45.9490    2.0720 O.2    59  ASN59      -0.2867
     27  CB         6.2260  -44.7520    4.0440 C.3    59  ASN59       0.1155
     28  CG         5.4000  -43.8860    5.0030 C.2    59  ASN59       0.2627
     29  OD1        5.9120  -43.3750    6.0100 O.2    59  ASN59      -0.2716
     30  ND2        4.1130  -43.7180    4.6910 N.am   59  ASN59      -0.0877
     31  N          0.7960  -34.7850    4.5080 N.3    91  ASN91      -0.1225
     32  CA         0.5460  -36.2130    4.4640 C.3    91  ASN91       0.1785
     33  C         -0.8470  -36.4030    5.0820 C.2    91  ASN91       0.2597
     34  O         -1.2250  -35.6100    5.9200 O.2    91  ASN91      -0.2718
     35  CB         1.5760  -36.9480    5.3330 C.3    91  ASN91       0.1169
     36  CG         1.3750  -38.4390    5.3250 C.2    91  ASN91       0.2627
     37  OD1        0.9030  -38.9780    4.3410 O.2    91  ASN91      -0.2716
     38  ND2        1.6970  -39.1120    6.4390 N.am   91  ASN91      -0.0877
     39  N         -1.5660  -37.4560    4.6950 N.am   92  ARG92      -0.1979
     40  CA        -2.9400  -37.6920    5.1770 C.3    92  ARG92       0.1597
     41  C         -3.8040  -36.4330    4.9380 C.2    92  ARG92       0.2287
     42  O         -4.4880  -35.9310    5.8270 O.2    92  ARG92      -0.2864
     43  CB        -2.9580  -38.0920    6.6460 C.3    92  ARG92       0.0334
     44  CG        -1.9290  -39.1620    7.0280 C.3    92  ARG92       0.0492
     45  CD        -2.1650  -40.4510    6.2900 C.3    92  ARG92       0.2205
     46  NE        -3.5460  -40.8880    6.4300 N.pl3  92  ARG92      -0.0865
     47  CZ        -4.1290  -41.2860    7.5680 C.cat  92  ARG92       0.5346
     48  NH1       -3.4380  -41.3370    8.7230 N.pl3  92  ARG92       0.1354
     49  NH2       -5.4250  -41.6300    7.5590 N.pl3  92  ARG92       0.1354
     50  N         -5.7190  -34.1840   10.5120 N.3   138  ILE138     -0.1231
     51  CA        -5.0270  -35.0760    9.5650 C.3   138  ILE138      0.1692
     52  C         -5.9060  -36.3010    9.3890 C.2   138  ILE138      0.2592
     53  O         -6.7410  -36.5880   10.2520 O.2   138  ILE138     -0.2718
     54  CB        -3.5530  -35.4150    9.9970 C.3   138  ILE138      0.0266
     55  CG1       -3.5220  -36.5380   11.0510 C.3   138  ILE138      0.0019
     56  CG2       -2.8180  -34.1330   10.4600 C.3   138  ILE138      0.0020
     57  CD1       -2.1030  -37.1210   11.3260 C.3   138  ILE138      0.0001
     58  N         -5.7740  -36.9900    8.2570 N.am  139  GLY139     -0.1957
     59  CA        -6.5890  -38.1910    8.0060 C.3   139  GLY139      0.1869
     60  C         -8.0310  -37.7420    7.8670 C.2   139  GLY139      0.2309
     61  O         -8.9400  -38.4580    8.1950 O.2   139  GLY139     -0.2863
     62  N         -7.8200  -36.5700   12.8320 N.3   155  PHE155     -0.1241
     63  CA        -6.9880  -36.7360   14.0230 C.3   155  PHE155      0.1605
     64  C         -6.2550  -35.4090   14.2450 C.2   155  PHE155      0.2264
     65  O         -5.6620  -34.8510   13.3210 O.2   155  PHE155     -0.2867
     66  CB        -5.9840  -37.8670   13.7660 C.3   155  PHE155      0.0534
     67  CG        -5.1090  -38.2150   14.9620 C.ar  155  PHE155     -0.0203
     68  CD1       -5.6630  -38.4470   16.2040 C.ar  155  PHE155     -0.0042
     69  CD2       -3.7340  -38.3430   14.8110 C.ar  155  PHE155     -0.0042
     70  CE1       -4.8730  -38.7820   17.2980 C.ar  155  PHE155     -0.0003
     71  CE2       -2.9090  -38.6870   15.9050 C.ar  155  PHE155     -0.0003
     72  CZ        -3.4910  -38.9000   17.1480 C.ar  155  PHE155     -0.0000
     73  N         -8.8830  -38.7680   17.8760 N.3   160  ARG160     -0.1245
     74  CA        -9.6580  -38.9020   16.6450 C.3   160  ARG160      0.1563
     75  C        -10.9250  -38.0650   16.8140 C.2   160  ARG160      0.2260
     76  O        -11.4280  -37.9040   17.9420 O.2   160  ARG160     -0.2867
     77  CB       -10.0520  -40.3490   16.3070 C.3   160  ARG160      0.0307
     78  CG        -9.0140  -41.4460   16.5120 C.3   160  ARG160      0.0489
     79  CD        -7.9340  -41.5150   15.4880 C.3   160  ARG160      0.2205
     80  NE        -6.7250  -42.0810   16.0920 N.pl3 160  ARG160     -0.0865
     81  CZ        -5.6330  -42.4490   15.4270 C.cat 160  ARG160      0.5346
     82  NH1       -5.5550  -42.3440   14.0880 N.pl3 160  ARG160      0.1354
     83  NH2       -4.6000  -42.9300   16.1100 N.pl3 160  ARG160      0.1354
     84  N        -11.0290  -41.2910   11.9560 N.3   185  SER185     -0.1202
     85  CA        -9.8460  -40.8430   11.2490 C.3   185  SER185      0.2020
     86  C         -9.6680  -41.7620   10.0180 C.2   185  SER185      0.2619
     87  O         -9.9090  -42.9520   10.1320 O.2   185  SER185     -0.2717
     88  CB        -8.6580  -41.0640   12.1660 C.3   185  SER185      0.2103
     89  OG        -7.5670  -40.3900   11.6530 O.3   185  SER185     -0.2182
     90  N         -9.2560  -41.2240    8.8650 N.am  186  GLY186     -0.1956
     91  CA        -9.0050  -42.0830    7.6980 C.3   186  GLY186      0.1869
     92  C        -10.2410  -42.7540    7.1170 C.2   186  GLY186      0.2309
     93  O        -10.1710  -43.8820    6.5570 O.2   186  GLY186     -0.2863
     94  N        -11.0170  -45.1960   11.3900 N.3   202  TYR202     -0.1241
     95  CA       -10.5000  -45.7800   12.6200 C.3   202  TYR202      0.1605
     96  C        -10.9470  -44.8960   13.7810 C.2   202  TYR202      0.2264
     97  O        -10.7790  -43.6710   13.7150 O.2   202  TYR202     -0.2867
     98  CB        -8.9770  -45.7700   12.5290 C.3   202  TYR202      0.0534
     99  CG        -8.2470  -46.4090   13.6840 C.ar  202  TYR202     -0.0201
    100  CD1       -8.3790  -47.7700   13.9370 C.ar  202  TYR202     -0.0009
    101  CD2       -7.4000  -45.6440   14.5070 C.ar  202  TYR202     -0.0009
    102  CE1       -7.7030  -48.3780   14.9890 C.ar  202  TYR202      0.0417
    103  CE2       -6.7090  -46.2370   15.5720 C.ar  202  TYR202      0.0417
    104  CZ        -6.8820  -47.6030   15.8010 C.ar  202  TYR202      0.1957
    105  OH        -6.2100  -48.2180   16.8310 O.3   202  TYR202     -0.2866
    106  N        -10.7020  -50.5030   13.3800 N.3   207  GLN207     -0.1245
    107  CA       -11.1270  -50.1280   12.0110 C.3   207  GLN207      0.1566
    108  C        -12.6270  -50.3410   11.8930 C.2   207  GLN207      0.2260
    109  O        -13.1690  -51.2770   12.4730 O.2   207  GLN207     -0.2867
    110  CB       -10.3730  -50.9200   10.9440 C.3   207  GLN207      0.0367
    111  CG        -8.8780  -50.6500   10.9440 C.3   207  GLN207      0.0905
    112  CD        -8.1750  -51.4060   12.0690 C.2   207  GLN207      0.2608
    113  OE1       -8.6900  -52.4070   12.5850 O.2   207  GLN207     -0.2717
    114  NE2       -7.0080  -50.9350   12.4540 N.am  207  GLN207     -0.0878
    115  N         -9.8400  -48.8230    7.2500 N.3   232  SER232     -0.1202
    116  CA        -9.4190  -47.4170    7.4100 C.3   232  SER232      0.2020
    117  C         -8.4010  -47.1170    6.3100 C.2   232  SER232      0.2618
    118  O         -7.8760  -48.0400    5.6950 O.2   232  SER232     -0.2717
    119  CB        -8.8230  -47.1360    8.7900 C.3   232  SER232      0.2103
    120  OG        -7.7080  -47.9690    9.0000 O.3   232  SER232     -0.2182
    121  N         -8.1950  -45.8440    6.0280 N.am  233  ALA233     -0.1979
    122  CA        -7.3330  -45.3990    4.9320 C.3   233  ALA233      0.1597
    123  C         -7.7430  -46.0500    3.6100 C.2   233  ALA233      0.2287
    124  O         -6.8950  -46.5100    2.8100 O.2   233  ALA233     -0.2864
    125  CB        -5.8440  -45.6590    5.2570 C.3   233  ALA233      0.0319
    126  N         -6.9970  -50.8400    5.2160 N.3   249  TYR249     -0.1241
    127  CA        -6.4200  -51.7740    6.1750 C.3   249  TYR249      0.1605
    128  C         -7.5370  -52.1670    7.1230 C.2   249  TYR249      0.2264
    129  O         -8.3080  -51.2930    7.5710 O.2   249  TYR249     -0.2867
    130  CB        -5.3330  -51.0570    6.9470 C.3   249  TYR249      0.0534
    131  CG        -4.6090  -51.9160    7.9560 C.ar  249  TYR249     -0.0201
    132  CD1       -3.8810  -53.0420    7.5510 C.ar  249  TYR249     -0.0009
    133  CD2       -4.6450  -51.6010    9.3060 C.ar  249  TYR249     -0.0009
    134  CE1       -3.1960  -53.8320    8.4870 C.ar  249  TYR249      0.0417
    135  CE2       -3.9620  -52.3930   10.2510 C.ar  249  TYR249      0.0417
    136  CZ        -3.2530  -53.4990    9.8150 C.ar  249  TYR249      0.1957
    137  OH        -2.5850  -54.2670   10.7430 O.3   249  TYR249     -0.2866
    138  N         -3.8630  -55.8000    4.4350 N.3   254  PHE254     -0.1241
    139  CA        -4.0590  -54.7250    3.4380 C.3   254  PHE254      0.1605
    140  C         -4.9620  -55.2150    2.3560 C.2   254  PHE254      0.2264
    141  O         -4.6250  -56.1370    1.6080 O.2   254  PHE254     -0.2867
    142  CB        -2.7270  -54.2650    2.8590 C.3   254  PHE254      0.0534
    143  CG        -1.8600  -53.6500    3.8790 C.ar  254  PHE254     -0.0203
    144  CD1       -1.1250  -54.4510    4.7540 C.ar  254  PHE254     -0.0042
    145  CD2       -1.8240  -52.2730    4.0200 C.ar  254  PHE254     -0.0042
    146  CE1       -0.3360  -53.8810    5.7600 C.ar  254  PHE254     -0.0003
    147  CE2       -1.0330  -51.6990    4.9870 C.ar  254  PHE254     -0.0003
    148  CZ        -0.2840  -52.4880    5.8530 C.ar  254  PHE254     -0.0000
    149  N         -3.2880  -49.6000    1.1740 N.3   279  SER279     -0.1202
    150  CA        -4.0470  -48.5740    1.8690 C.3   279  SER279      0.2020
    151  C         -3.5530  -47.1800    1.4390 C.2   279  SER279      0.2619
    152  O         -2.5040  -47.0500    0.8000 O.2   279  SER279     -0.2717
    153  CB        -3.8970  -48.7490    3.3850 C.3   279  SER279      0.2103
    154  OG        -2.5450  -48.5530    3.7490 O.3   279  SER279     -0.2182
    155  N         -4.3100  -46.1590    1.7840 N.am  280  GLY280     -0.1956
    156  CA        -3.8670  -44.7770    1.6190 C.3   280  GLY280      0.1869
    157  C         -3.6880  -44.3370    0.1730 C.2   280  GLY280      0.2309
    158  O         -2.7890  -43.5480   -0.1360 O.2   280  GLY280     -0.2863
@<TRIPOS>BOND
     1    13    14    1
     2   158   157    2
     3     1     2    1
     4   157   156    1
     5    14    15    1
     6    14    17    1
     7   152   151    2
     8     2     3    1
     9     2     5    1
    10    15    16    2
    11    15    19   am
    12     3     4    2
    13   149   150    1
    14    17    18    1
    15    21    22    2
    16    21    20    1
    17   151   155   am
    18   151   150    1
    19    19    20    1
    20   141   140    2
    21   156   155    1
    22   150   153    1
    23    26    25    2
    24     5     6    1
    25    23    24    1
    26   140   139    1
    27    25    24    1
    28   124   123    2
    29   142   139    1
    30   142   143    1
    31     6     7   ar
    32     6     8   ar
    33     7     9   ar
    34    24    27    1
    35   153   154    1
    36   139   138    1
    37   123   122    1
    38   143   145   ar
    39   143   144   ar
    40   145   147   ar
    41    27    28    1
    42     8    10   ar
    43     9    11   ar
    44    37    36    2
    45    32    31    1
    46    32    33    1
    47    32    35    1
    48    30    28   am
    49    39    33   am
    50    39    40    1
    51   144   146   ar
    52   122   125    1
    53   122   121    1
    54    41    40    1
    55    41    42    2
    56   147   148   ar
    57    28    29    2
    58    10    11   ar
    59    11    12    1
    60    33    34    2
    61    40    43    1
    62   126   127    1
    63    36    35    1
    64    36    38   am
    65   118   117    2
    66   146   148   ar
    67   121   117   am
    68   127   130    1
    69   127   128    1
    70    45    46    1
    71    45    44    1
    72   117   116    1
    73    46    47    2
    74    93    92    2
    75    43    44    1
    76   130   131    1
    77    92    91    1
    78   128   129    2
    79   115   116    1
    80   116   119    1
    81   132   131   ar
    82   132   134   ar
    83    49    47    1
    84    47    48    1
    85    91    90    1
    86    60    59    1
    87    60    61    2
    88   131   133   ar
    89    59    58    1
    90    58    52   am
    91   134   136   ar
    92   119   120    1
    93    90    86   am
    94   133   135   ar
    95    52    51    1
    96    52    53    2
    97    51    54    1
    98    51    50    1
    99   136   135   ar
   100   136   137    1
   101    54    56    1
   102    54    55    1
   103    86    87    2
   104    86    85    1
   105   111   110    1
   106   111   112    1
   107   110   107    1
   108    55    57    1
   109    85    84    1
   110    85    88    1
   111    94    95    1
   112    89    88    1
   113   108   107    1
   114   108   109    2
   115   107   106    1
   116   112   114   am
   117   112   113    2
   118    98    95    1
   119    98    99    1
   120    95    96    1
   121    62    63    1
   122    65    64    2
   123    99   100   ar
   124    99   101   ar
   125    97    96    2
   126    66    63    1
   127    66    67    1
   128   100   102   ar
   129    63    64    1
   130    82    81    1
   131   101   103   ar
   132    69    67   ar
   133    69    71   ar
   134    67    68   ar
   135   102   104   ar
   136    81    80    2
   137    81    83    1
   138    79    80    1
   139    79    78    1
   140   103   104   ar
   141   104   105    1
   142    71    72   ar
   143    68    70   ar
   144    77    78    1
   145    77    74    1
   146    74    75    1
   147    74    73    1
   148    75    76    2
   149    72    70   ar
