@<TRIPOS>MOLECULE
tmp/2dykA00.pdb
 115 109 0 0 0
SMALL
GASTEIGER

@<TRIPOS>ATOM
      1  N         29.6270   31.1140   17.8720 N.3    10  PRO10      -0.2102
      2  CA        30.2430   32.3080   17.2960 C.3    10  PRO10       0.1504
      3  C         29.3570   33.5540   17.3360 C.2    10  PRO10       0.2576
      4  O         28.1240   33.4750   17.2770 O.2    10  PRO10      -0.2718
      5  CB        30.5610   31.8660   15.8650 C.3    10  PRO10       0.0282
      6  CG        30.8830   30.3980   16.0460 C.3    10  PRO10       0.0208
      7  CD        29.7590   29.9640   16.9590 C.3    10  PRO10       0.0893
      8  N         30.0130   34.6940   17.4740 N.am   11  ASN11      -0.1961
      9  CA        29.3850   36.0040   17.4850 C.3    11  ASN11       0.1819
     10  C         28.4630   36.3800   18.6430 C.2    11  ASN11       0.2621
     11  O         27.7070   37.3500   18.5300 O.2    11  ASN11      -0.2715
     12  CB        28.6540   36.2260   16.1550 C.3    11  ASN11       0.1195
     13  CG        29.5310   35.9230   14.9590 C.2    11  ASN11       0.2630
     14  OD1       30.6690   36.3800   14.8810 O.2    11  ASN11      -0.2716
     15  ND2       29.0040   35.1480   14.0220 N.am   11  ASN11      -0.0877
     16  N         28.5150   35.6480   19.7510 N.am   12  VAL12      -0.1963
     17  CA        27.6640   36.0070   20.8810 C.3    12  VAL12       0.1727
     18  C         28.3750   37.0240   21.7800 C.2    12  VAL12       0.2617
     19  O         27.7960   37.5190   22.7320 O.2    12  VAL12      -0.2715
     20  CB        27.2390   34.7760   21.7160 C.3    12  VAL12       0.0290
     21  CG1       26.4650   33.8050   20.8230 C.3    12  VAL12       0.0023
     22  CG2       28.4650   34.0960   22.3480 C.3    12  VAL12       0.0023
     23  N         29.6350   37.3250   21.4750 N.am   13  GLY13      -0.1940
     24  CA        30.3600   38.3190   22.2570 C.3    13  GLY13       0.2014
     25  C         31.3810   37.8040   23.2440 C.2    13  GLY13       0.2639
     26  O         31.7300   38.5060   24.1860 O.2    13  GLY13      -0.2714
     27  N         31.8830   36.5980   23.0150 N.am   14  LYS14      -0.1963
     28  CA        32.8710   35.9950   23.9050 C.3    14  LYS14       0.1728
     29  C         34.2230   36.7200   23.9550 C.2    14  LYS14       0.2617
     30  O         34.7790   36.9410   25.0390 O.2    14  LYS14      -0.2715
     31  CB        33.0730   34.5180   23.5150 C.3    14  LYS14       0.0311
     32  CG        31.7790   33.7360   23.5710 C.3    14  LYS14       0.0038
     33  CD        31.9310   32.2330   23.2930 C.3    14  LYS14       0.0206
     34  CE        32.6710   31.9110   21.9840 C.3    14  LYS14       0.1093
     35  NZ        32.1370   32.5710   20.7440 N.3    14  LYS14      -0.1314
     36  N         34.7570   37.1040   22.8000 N.am   15  SER15      -0.1936
     37  CA        36.0620   37.7600   22.7990 C.3    15  SER15       0.2055
     38  C         35.9570   39.1490   23.4080 C.2    15  SER15       0.2643
     39  O         36.8900   39.6080   24.0580 O.2    15  SER15      -0.2714
     40  CB        36.6340   37.8440   21.3770 C.3    15  SER15       0.2130
     41  OG        35.7550   38.5590   20.5340 O.3    15  SER15      -0.2179
     42  N         34.8280   39.8220   23.1860 N.am   16  SER16      -0.1949
     43  CA        34.6330   41.1500   23.7570 C.3    16  SER16       0.1924
     44  C         34.5450   41.0300   25.2800 C.2    16  SER16       0.2314
     45  O         35.1320   41.8410   26.0050 O.2    16  SER16      -0.2863
     46  CB        33.3650   41.8040   23.1840 C.3    16  SER16       0.2116
     47  OG        33.5050   41.9740   21.7840 O.3    16  SER16      -0.2180
     48  N         39.0780   31.7190   26.3850 N.3    44  ASP44      -0.1239
     49  CA        37.9720   31.8700   25.4370 C.3    44  ASP44       0.1674
     50  C         38.1760   30.7750   24.3960 C.2    44  ASP44       0.2266
     51  O         39.2620   30.6570   23.8170 O.2    44  ASP44      -0.2867
     52  CB        37.9970   33.2420   24.7510 C.3    44  ASP44       0.1410
     53  CG        36.9160   33.3770   23.6620 C.2    44  ASP44       0.3668
     54  OD1       35.9770   32.5540   23.6370 O.co2  44  ASP44      -0.2456
     55  OD2       37.0030   34.3110   22.8420 O.co2  44  ASP44      -0.2456
     56  N         36.1490   30.4230   21.6180 N.3    46  GLY46      -0.1225
     57  CA        35.5140   30.8100   20.3580 C.3    46  GLY46       0.1811
     58  C         36.3070   30.4720   19.1100 C.2    46  GLY46       0.2280
     59  O         35.7350   30.0800   18.0870 O.2    46  GLY46      -0.2866
     60  N         20.1510   39.2170   23.2750 N.3    79  ARG79      -0.1245
     61  CA        19.1520   39.8820   22.4450 C.3    79  ARG79       0.1563
     62  C         18.5480   38.9190   21.4160 C.2    79  ARG79       0.2260
     63  O         17.3240   38.8270   21.2820 O.2    79  ARG79      -0.2867
     64  CB        19.7850   41.1080   21.7580 C.3    79  ARG79       0.0307
     65  CG        20.2500   42.1930   22.7530 C.3    79  ARG79       0.0489
     66  CD        20.8990   43.3800   22.0470 C.3    79  ARG79       0.2205
     67  NE        21.9680   42.9520   21.1430 N.pl3  79  ARG79      -0.0865
     68  CZ        22.6470   43.7690   20.3440 C.cat  79  ARG79       0.5346
     69  NH1       22.3780   45.0700   20.3310 N.pl3  79  ARG79       0.1354
     70  NH2       23.5930   43.2870   19.5540 N.pl3  79  ARG79       0.1354
     71  N         24.7850   37.9970   26.9920 N.3   105  THR105     -0.1203
     72  CA        25.6120   39.0380   26.4290 C.3   105  THR105      0.1994
     73  C         24.8300   40.0850   25.6670 C.2   105  THR105      0.2617
     74  O         23.6850   39.8680   25.2890 O.2   105  THR105     -0.2717
     75  CB        26.6240   38.4340   25.4550 C.3   105  THR105      0.1784
     76  OG1       25.9020   37.7930   24.3930 O.3   105  THR105     -0.2211
     77  CG2       27.4930   37.3790   26.1710 C.3   105  THR105      0.0376
     78  N         25.4900   41.2160   25.4400 N.am  106  LYS106     -0.1979
     79  CA        24.9270   42.3370   24.7020 C.3   106  LYS106      0.1596
     80  C         23.6730   42.9120   25.3560 C.2   106  LYS106      0.2287
     81  O         22.8120   43.4600   24.6640 O.2   106  LYS106     -0.2864
     82  CB        24.6050   41.9070   23.2640 C.3   106  LYS106      0.0298
     83  CG        25.7760   41.2570   22.5190 C.3   106  LYS106      0.0038
     84  CD        25.3210   40.7710   21.1460 C.3   106  LYS106      0.0206
     85  CE        26.4540   40.0900   20.3940 C.3   106  LYS106      0.1093
     86  NZ        25.9710   39.5170   19.1190 N.3   106  LYS106     -0.1314
     87  N         22.7630   45.5800   26.5390 N.3   108  ASP108     -0.1239
     88  CA        23.2260   46.9620   26.6000 C.3   108  ASP108      0.1674
     89  C         22.4020   47.9230   27.4470 C.2   108  ASP108      0.2266
     90  O         22.9300   48.9150   27.9370 O.2   108  ASP108     -0.2867
     91  CB        23.3580   47.5340   25.1900 C.3   108  ASP108      0.1410
     92  CG        24.3670   46.7650   24.3260 C.2   108  ASP108      0.3668
     93  OD1       25.2780   46.1010   24.8730 O.co2 108  ASP108     -0.2456
     94  OD2       24.2530   46.8560   23.0880 O.co2 108  ASP108     -0.2456
     95  N         27.1690   43.3050   29.2960 N.3   131  SER131     -0.1202
     96  CA        27.3340   44.0910   28.0850 C.3   131  SER131      0.2020
     97  C         28.7930   44.4820   28.0420 C.2   131  SER131      0.2619
     98  O         29.2800   45.1320   28.9670 O.2   131  SER131     -0.2717
     99  CB        26.4890   45.3650   28.1100 C.3   131  SER131      0.2103
    100  OG        26.7970   46.1970   27.0050 O.3   131  SER131     -0.2182
    101  N         29.5080   44.0720   26.9990 N.am  132  SER132     -0.1937
    102  CA        30.9130   44.4580   26.8910 C.3   132  SER132      0.2055
    103  C         30.9710   45.8510   26.2940 C.2   132  SER132      0.2642
    104  O         31.9000   46.6040   26.5540 O.2   132  SER132     -0.2714
    105  CB        31.7040   43.4850   26.0100 C.3   132  SER132      0.2130
    106  OG        31.7920   42.2260   26.6300 O.3   132  SER132     -0.2179
    107  N         29.9660   46.1960   25.5000 N.am  133  GLU133     -0.1976
    108  CA        29.9030   47.5200   24.8780 C.3   133  GLU133      0.1602
    109  C         29.7440   48.6050   25.9610 C.2   133  GLU133      0.2287
    110  O         30.3940   49.6490   25.8960 O.2   133  GLU133     -0.2864
    111  CB        28.7160   47.5950   23.9050 C.3   133  GLU133      0.0415
    112  CG        28.7880   48.7470   22.9130 C.3   133  GLU133      0.1163
    113  CD        29.9340   48.5930   21.9180 C.2   133  GLU133      0.3649
    114  OE1       30.0140   47.5340   21.2540 O.co2 133  GLU133     -0.2457
    115  OE2       30.7560   49.5280   21.7970 O.co2 133  GLU133     -0.2457
@<TRIPOS>BOND
     1    15    13   am
     2    14    13    2
     3    13    12    1
     4     5     6    1
     5     5     2    1
     6     6     7    1
     7    12     9    1
     8     7     1    1
     9     4     3    2
    10     2     3    1
    11     2     1    1
    12     3     8   am
    13     8     9    1
    14     9    10    1
    15    59    58    2
    16    11    10    2
    17    10    16   am
    18    58    57    1
    19    86    85    1
    20    70    68    1
    21    16    17    1
    22    69    68    1
    23    68    67    2
    24    57    56    1
    25    85    84    1
    26    41    40    1
    27    35    34    1
    28    21    20    1
    29    17    20    1
    30    17    18    1
    31    67    66    1
    32    84    83    1
    33   114   113   ar
    34    63    62    2
    35    40    37    1
    36    62    61    1
    37    23    18   am
    38    23    24    1
    39    20    22    1
    40    64    61    1
    41    64    65    1
    42    18    19    2
    43    47    46    1
    44   115   113   ar
    45   113   112    1
    46    34    33    1
    47    66    65    1
    48    24    25    1
    49    61    60    1
    50    83    82    1
    51    37    36    1
    52    37    38    1
    53    36    29   am
    54    55    53   ar
    55   112   111    1
    56    27    25   am
    57    27    28    1
    58    94    92   ar
    59    46    43    1
    60    42    38   am
    61    42    43    1
    62    25    26    2
    63    82    79    1
    64    33    32    1
    65    38    39    2
    66    31    32    1
    67    31    28    1
    68    54    53   ar
    69    53    52    1
    70    43    44    1
    71    51    50    2
    72   111   108    1
    73    28    29    1
    74    29    30    2
    75    92    93   ar
    76    92    91    1
    77    76    75    1
    78    50    49    1
    79    81    80    2
    80    79    80    1
    81    79    78    1
    82    52    49    1
    83   108   107    1
    84   108   109    1
    85    91    88    1
    86    44    45    2
    87    74    73    2
    88    49    48    1
    89    78    73   am
    90    75    77    1
    91    75    72    1
    92   107   103   am
    93    73    72    1
    94   110   109    2
    95   105   106    1
    96   105   102    1
    97   103   104    2
    98   103   102    1
    99    72    71    1
   100    87    88    1
   101    88    89    1
   102   102   101    1
   103   101    97   am
   104   100    99    1
   105    89    90    2
   106    97    96    1
   107    97    98    2
   108    96    99    1
   109    96    95    1
