@<TRIPOS>MOLECULE
tmp/2dyxA03.pdb
 117 117 0 0 0
SMALL
GASTEIGER

@<TRIPOS>ATOM
      1  N         18.3060   16.1530   10.7790 N.3    89  THR89      -0.1203
      2  CA        17.8940   14.7810   10.5230 C.3    89  THR89       0.1994
      3  C         16.4730   14.7480    9.9460 C.2    89  THR89       0.2618
      4  O         15.6500   15.6390   10.2200 O.2    89  THR89      -0.2717
      5  CB        17.9470   13.9330   11.8090 C.3    89  THR89       0.1784
      6  OG1       17.1590   14.5640   12.8240 O.3    89  THR89      -0.2211
      7  CG2       19.3850   13.7870   12.3020 C.3    89  THR89       0.0376
      8  N         16.1880   13.7190    9.1510 N.am   90  GLU90      -0.1965
      9  CA        14.8720   13.6020    8.5400 C.3    90  GLU90       0.1733
     10  C         13.9280   12.5990    9.2230 C.2    90  GLU90       0.2616
     11  O         12.7140   12.8190    9.3050 O.2    90  GLU90      -0.2715
     12  CB        15.0120   13.3420    7.0380 C.3    90  GLU90       0.0429
     13  CG        15.5770   14.5680    6.3270 C.3    90  GLU90       0.1163
     14  CD        15.8510   14.3380    4.8620 C.2    90  GLU90       0.3649
     15  OE1       14.9360   13.8800    4.1540 O.co2  90  GLU90      -0.2457
     16  OE2       16.9810   14.6260    4.4250 O.co2  90  GLU90      -0.2457
     17  N         14.4630   11.5160    9.7420 N.am   91  GLY91      -0.1955
     18  CA        13.5990   10.5360   10.4160 C.3    91  GLY91       0.1869
     19  C         13.3540    9.3980    9.4470 C.2    91  GLY91       0.2309
     20  O         13.4640    9.5550    8.2310 O.2    91  GLY91      -0.2863
     21  N          6.4500    8.4810   10.9000 N.3   250  VAL250     -0.1231
     22  CA         7.8570    8.7990   10.7430 C.3   250  VAL250      0.1692
     23  C          8.5430    8.6980   12.1180 C.2   250  VAL250      0.2592
     24  O          8.0290    9.1830   13.1210 O.2   250  VAL250     -0.2718
     25  CB         8.1350   10.1040    9.9250 C.3   250  VAL250      0.0266
     26  CG1        6.9190   11.0110    9.8720 C.3   250  VAL250      0.0020
     27  CG2        9.4000   10.8430   10.4010 C.3   250  VAL250      0.0020
     28  N          9.6660    7.9880   12.1680 N.am  251  ALA251     -0.1966
     29  CA        10.3950    7.7430   13.4310 C.3   251  ALA251      0.1713
     30  C         11.5970    8.6910   13.6050 C.2   251  ALA251      0.2458
     31  O         12.3140    8.9600   12.6450 O.2   251  ALA251     -0.2730
     32  CB        10.8970    6.3250   13.4300 C.3   251  ALA251      0.0333
     33  N         11.8810    9.1320   14.8460 N.am  252  PRO252     -0.2716
     34  CA        13.1450    9.8650   15.0350 C.3   252  PRO252      0.1536
     35  C         14.3840    8.9630   14.8640 C.2   252  PRO252      0.2598
     36  O         14.3810    7.7690   15.2370 O.2   252  PRO252     -0.2715
     37  CB        13.0350   10.4300   16.4660 C.3   252  PRO252      0.0310
     38  CG        12.0340    9.5660   17.1530 C.3   252  PRO252      0.0237
     39  CD        11.1180    8.9730   16.0980 C.3   252  PRO252      0.0939
     40  N         15.4400    9.5130   14.2670 N.am  253  ASN253     -0.1973
     41  CA        16.6270    8.7040   14.0220 C.3   253  ASN253      0.1688
     42  C         17.2060    8.1370   15.3470 C.2   253  ASN253      0.2292
     43  O         16.9610    8.6960   16.4500 O.2   253  ASN253     -0.2864
     44  CB        17.6790    9.4980   13.2410 C.3   253  ASN253      0.1181
     45  CG        17.2830    9.7510   11.7780 C.2   253  ASN253      0.2629
     46  OD1       16.4060    9.0910   11.2260 O.2   253  ASN253     -0.2716
     47  ND2       17.9390   10.7190   11.1540 N.am  253  ASN253     -0.0877
     48  N         12.7250   14.6110   25.2720 N.3   317  GLU317     -0.1231
     49  CA        11.3410   14.8330   24.8450 C.3   317  GLU317      0.1699
     50  C         11.2420   15.6800   23.5990 C.2   317  GLU317      0.2592
     51  O         10.4510   15.3790   22.7010 O.2   317  GLU317     -0.2718
     52  CB        10.5100   15.4510   25.9680 C.3   317  GLU317      0.0402
     53  CG        10.2540   14.4760   27.0880 C.3   317  GLU317      0.1161
     54  CD         9.4500   15.0840   28.2280 C.2   317  GLU317      0.3649
     55  OE1        9.6440   16.2890   28.5200 O.co2 317  GLU317     -0.2457
     56  OE2        8.6250   14.3510   28.8290 O.co2 317  GLU317     -0.2457
     57  N         12.0430   16.7380   23.5400 N.am  318  GLU318     -0.1966
     58  CA        12.1430   17.5160   22.3260 C.3   318  GLU318      0.1733
     59  C         12.7080   16.6820   21.1980 C.2   318  GLU318      0.2616
     60  O         12.2470   16.8060   20.0820 O.2   318  GLU318     -0.2715
     61  CB        13.0010   18.7530   22.5250 C.3   318  GLU318      0.0429
     62  CG        12.4710   19.6440   23.6240 C.3   318  GLU318      0.1163
     63  CD        13.3800   20.7980   23.8560 C.2   318  GLU318      0.3649
     64  OE1       14.5760   20.5750   24.1700 O.co2 318  GLU318     -0.2457
     65  OE2       12.8880   21.9240   23.7030 O.co2 318  GLU318     -0.2457
     66  N         13.7080   15.8430   21.4730 N.am  319  TYR319     -0.1960
     67  CA        14.3290   15.0530   20.4020 C.3   319  TYR319      0.1771
     68  C         13.3240   14.0620   19.8190 C.2   319  TYR319      0.2619
     69  O         13.2560   13.8650   18.6090 O.2   319  TYR319     -0.2715
     70  CB        15.6000   14.3070   20.8740 C.3   319  TYR319      0.0574
     71  CG        16.1890   13.5110   19.7400 C.ar  319  TYR319     -0.0198
     72  CD1       16.9750   14.1310   18.7700 C.ar  319  TYR319     -0.0009
     73  CD2       15.8860   12.1650   19.5820 C.ar  319  TYR319     -0.0009
     74  CE1       17.4800   13.4200   17.7060 C.ar  319  TYR319      0.0417
     75  CE2       16.3730   11.4580   18.5310 C.ar  319  TYR319      0.0417
     76  CZ        17.1610   12.0900   17.5860 C.ar  319  TYR319      0.1957
     77  OH        17.6340   11.3940   16.5220 O.3   319  TYR319     -0.2866
     78  N         12.5360   13.4390   20.6780 N.am  320  LEU320     -0.1963
     79  CA        11.6460   12.4150   20.2110 C.3   320  LEU320      0.1728
     80  C         10.4100   13.0670   19.5590 C.2   320  LEU320      0.2617
     81  O          9.8500   12.5080   18.6240 O.2   320  LEU320     -0.2715
     82  CB        11.2700   11.4480   21.3350 C.3   320  LEU320      0.0311
     83  CG        12.3770   10.5740   21.9460 C.3   320  LEU320      0.0022
     84  CD1       11.7550    9.6940   23.0430 C.3   320  LEU320      0.0001
     85  CD2       13.0570    9.7050   20.8540 C.3   320  LEU320      0.0001
     86  N         10.0120   14.2490   20.0570 N.am  321  GLY321     -0.1940
     87  CA         8.8250   14.9380   19.5760 C.3   321  GLY321      0.2014
     88  C          7.5770   14.5750   20.3700 C.2   321  GLY321      0.2640
     89  O          7.4000   13.4230   20.8000 O.2   321  GLY321     -0.2714
     90  N          6.6990   15.5520   20.5560 N.am  322  THR322     -0.1936
     91  CA         5.5000   15.3700   21.3830 C.3   322  THR322      0.2028
     92  C          4.5480   14.3160   20.8170 C.2   322  THR322      0.2642
     93  O          3.9200   13.5920   21.5750 O.2   322  THR322     -0.2714
     94  CB         4.7340   16.7030   21.6380 C.3   322  THR322      0.1808
     95  OG1        5.6470   17.6970   22.1160 O.3   322  THR322     -0.2208
     96  CG2        3.6550   16.4980   22.7100 C.3   322  THR322      0.0379
     97  N          4.4550   14.2330   19.4930 N.am  323  GLU323     -0.1963
     98  CA         3.7040   13.1670   18.8240 C.3   323  GLU323      0.1733
     99  C          4.1150   11.7810   19.3510 C.2   323  GLU323      0.2616
    100  O          3.3160   11.0500   19.9490 O.2   323  GLU323     -0.2715
    101  CB         3.9900   13.2040   17.3170 C.3   323  GLU323      0.0429
    102  CG         3.1080   14.1220   16.4980 C.3   323  GLU323      0.1163
    103  CD         1.6960   13.5770   16.3350 C.2   323  GLU323      0.3649
    104  OE1        1.2490   13.4060   15.1720 O.co2 323  GLU323     -0.2457
    105  OE2        1.0400   13.3140   17.3750 O.co2 323  GLU323     -0.2457
    106  N          5.3740   11.4300   19.1140 N.am  324  TYR324     -0.1974
    107  CA         5.8870   10.1060   19.4930 C.3   324  TYR324      0.1639
    108  C          5.8210    9.8340   21.0040 C.2   324  TYR324      0.2290
    109  O          5.4250    8.7540   21.4450 O.2   324  TYR324     -0.2864
    110  CB         7.3020    9.9300   18.9530 C.3   324  TYR324      0.0560
    111  CG         7.8900    8.5300   19.1410 C.ar  324  TYR324     -0.0198
    112  CD1        7.1090    7.3860   18.9630 C.ar  324  TYR324     -0.0009
    113  CD2        9.2280    8.3670   19.4690 C.ar  324  TYR324     -0.0009
    114  CE1        7.6440    6.1100   19.1410 C.ar  324  TYR324      0.0417
    115  CE2        9.7720    7.0990   19.6550 C.ar  324  TYR324      0.0417
    116  CZ         8.9740    5.9770   19.4840 C.ar  324  TYR324      0.1957
    117  OH         9.5140    4.7340   19.6700 O.3   324  TYR324     -0.2866
@<TRIPOS>BOND
     1    15    14   ar
     2    16    14   ar
     3    14    13    1
     4    13    12    1
     5    12     9    1
     6    20    19    2
     7     9     8    1
     8     9    10    1
     9     8     3   am
    10    10    11    2
    11    10    17   am
    12    19    18    1
    13    17    18    1
    14    26    25    1
    15    25    27    1
    16    25    22    1
    17     3     4    2
    18     3     2    1
    19     2     1    1
    20     2     5    1
    21    22    21    1
    22    22    23    1
    23    47    45   am
    24    46    45    2
    25    45    44    1
    26     5     7    1
    27     5     6    1
    28    23    28   am
    29    23    24    2
    30    28    29    1
    31    31    30    2
    32    44    41    1
    33    32    29    1
    34    29    30    1
    35    30    33   am
    36    41    40    1
    37    41    42    1
    38    40    35   am
    39    33    34    1
    40    33    39    1
    41    35    34    1
    42    35    36    2
    43    34    37    1
    44   104   103   ar
    45    42    43    2
    46    39    38    1
    47   103   102    1
    48   103   105   ar
    49    37    38    1
    50   102   101    1
    51    77    76    1
    52   101    98    1
    53    76    74   ar
    54    76    75   ar
    55    74    72   ar
    56    75    73   ar
    57    69    68    2
    58    81    80    2
    59    72    71   ar
    60    98    99    1
    61    98    97    1
    62   110   111    1
    63   110   107    1
    64   112   111   ar
    65   112   114   ar
    66   106    99   am
    67   106   107    1
    68   111   113   ar
    69   114   116   ar
    70    99   100    2
    71   113   115   ar
    72   116   115   ar
    73   116   117    1
    74    97    92   am
    75   107   108    1
    76    80    86   am
    77    80    79    1
    78    87    86    1
    79    87    88    1
    80    73    71   ar
    81    71    70    1
    82    68    67    1
    83    68    78   am
    84    60    59    2
    85    79    78    1
    86    79    82    1
    87    88    90   am
    88    88    89    2
    89    67    70    1
    90    67    66    1
    91    90    91    1
    92    92    91    1
    93    92    93    2
    94    85    83    1
    95   108   109    2
    96    59    66   am
    97    59    58    1
    98    82    83    1
    99    91    94    1
   100    94    95    1
   101    94    96    1
   102    83    84    1
   103    58    61    1
   104    58    57    1
   105    61    62    1
   106    51    50    2
   107    57    50   am
   108    50    49    1
   109    62    63    1
   110    65    63   ar
   111    63    64   ar
   112    49    48    1
   113    49    52    1
   114    52    53    1
   115    53    54    1
   116    54    55   ar
   117    54    56   ar
