@<TRIPOS>MOLECULE
tmp/2dzaB00.pdb
 86 84 0 0 0
SMALL
GASTEIGER

@<TRIPOS>ATOM
      1  N          3.4730   41.8280   -7.0050 N.3    50  THR50      -0.1203
      2  CA         2.9320   43.1840   -7.0050 C.3    50  THR50       0.1994
      3  C          2.3760   43.5720   -5.6290 C.2    50  THR50       0.2618
      4  O          1.6470   44.5430   -5.4610 O.2    50  THR50      -0.2717
      5  CB         1.8140   43.2350   -8.0460 C.3    50  THR50       0.1784
      6  OG1        0.7630   42.3570   -7.6350 O.3    50  THR50      -0.2211
      7  CG2        2.3490   42.7660   -9.4010 C.3    50  THR50       0.0376
      8  N          2.7160   42.7340   -4.6260 N.am   51  ARG51      -0.1965
      9  CA         2.2850   42.9950   -3.2550 C.3    51  ARG51       0.1714
     10  C          2.7050   44.3990   -2.8080 C.2    51  ARG51       0.2458
     11  O          3.6980   44.9500   -3.2300 O.2    51  ARG51      -0.2730
     12  CB         2.9530   41.9540   -2.3590 C.3    51  ARG51       0.0347
     13  CG         2.4450   42.0070   -0.9190 C.3    51  ARG51       0.0492
     14  CD         1.3610   40.9540   -0.6490 C.3    51  ARG51       0.2205
     15  NE         0.4720   41.3820    0.4380 N.pl3  51  ARG51      -0.0865
     16  CZ         0.9770   41.4010    1.6870 C.cat  51  ARG51       0.5346
     17  NH1        2.2420   41.0810    1.8990 N.pl3  51  ARG51       0.1354
     18  NH2        0.1800   41.6970    2.7190 N.pl3  51  ARG51       0.1354
     19  N          1.8740   45.0020   -1.9630 N.am   52  PRO52      -0.2727
     20  CA         2.1470   46.3490   -1.4660 C.3    52  PRO52       0.1402
     21  C          3.3640   46.4090   -0.5350 C.2    52  PRO52       0.2269
     22  O          4.4820   46.7330   -0.9360 O.2    52  PRO52      -0.2865
     23  CB         0.8970   46.7720   -0.6890 C.3    52  PRO52       0.0296
     24  CG         0.3090   45.4770   -0.1460 C.3    52  PRO52       0.0237
     25  CD         0.6280   44.5200   -1.3950 C.3    52  PRO52       0.0939
     26  N          2.6550   52.5170   -4.0720 N.3   133  MET133     -0.1245
     27  CA         1.2300   52.6480   -4.3530 C.3   133  MET133      0.1570
     28  C          0.4320   52.9400   -3.0840 C.2   133  MET133      0.2261
     29  O         -0.4050   53.8440   -3.0660 O.2   133  MET133     -0.2867
     30  CB         0.6920   51.3840   -5.0310 C.3   133  MET133      0.0387
     31  CG         0.5700   50.1690   -4.1330 C.3   133  MET133      0.0595
     32  SD        -0.1340   48.7770   -5.0310 S.3   133  MET133     -0.1393
     33  CE         0.9450   47.4490   -4.5330 C.3   133  MET133      0.0692
     34  N         -7.1830   46.7380   -3.2660 N.3   172  GLY172     -0.1210
     35  CA        -5.9700   46.6600   -2.4750 C.3   172  GLY172      0.1956
     36  C         -4.7800   47.4030   -3.0570 C.2   172  GLY172      0.2611
     37  O         -3.8010   47.6430   -2.3510 O.2   172  GLY172     -0.2717
     38  N         -4.8520   47.7750   -4.3320 N.am  173  PHE173     -0.1976
     39  CA        -3.7480   48.4850   -4.9700 C.3   173  PHE173      0.1639
     40  C         -3.8480   49.9890   -4.7720 C.2   173  PHE173      0.2290
     41  O         -4.5390   50.6800   -5.5220 O.2   173  PHE173     -0.2864
     42  CB        -3.6920   48.1620   -6.4640 C.3   173  PHE173      0.0560
     43  CG        -3.2370   46.7620   -6.7640 C.ar  173  PHE173     -0.0200
     44  CD1       -4.1390   45.7040   -6.7630 C.ar  173  PHE173     -0.0042
     45  CD2       -1.9000   46.4990   -7.0440 C.ar  173  PHE173     -0.0042
     46  CE1       -3.7190   44.4030   -7.0400 C.ar  173  PHE173     -0.0003
     47  CE2       -1.4700   45.2010   -7.3220 C.ar  173  PHE173     -0.0003
     48  CZ        -2.3840   44.1520   -7.3200 C.ar  173  PHE173     -0.0000
     49  N         -7.7930   36.4600   -0.2930 N.3   203  ARG203     -0.1231
     50  CA        -6.8170   36.6120    0.8030 C.3   203  ARG203      0.1694
     51  C         -6.2780   38.0300    1.0150 C.2   203  ARG203      0.2592
     52  O         -5.3040   38.2050    1.7350 O.2   203  ARG203     -0.2718
     53  CB        -5.6550   35.6730    0.5810 C.3   203  ARG203      0.0321
     54  CG        -6.1190   34.2420    0.3880 C.3   203  ARG203      0.0489
     55  CD        -4.9290   33.2850    0.1810 C.3   203  ARG203      0.2205
     56  NE        -5.4550   31.9260    0.1410 N.pl3 203  ARG203     -0.0865
     57  CZ        -4.6110   30.8730    0.1480 C.cat 203  ARG203      0.5346
     58  NH1       -3.2890   31.0460    0.1910 N.pl3 203  ARG203      0.1354
     59  NH2       -5.1190   29.6450    0.1130 N.pl3 203  ARG203      0.1354
     60  N         -6.9010   39.0410    0.4200 N.am  204  LYS204     -0.1966
     61  CA        -6.4070   40.4060    0.5800 C.3   204  LYS204      0.1728
     62  C         -6.6750   41.0110    1.9610 C.2   204  LYS204      0.2616
     63  O         -7.5270   40.5290    2.7170 O.2   204  LYS204     -0.2715
     64  CB        -6.9760   41.3070   -0.5300 C.3   204  LYS204      0.0311
     65  CG        -6.5050   40.9210   -1.9420 C.3   204  LYS204      0.0038
     66  CD        -6.3710   42.1500   -2.8470 C.3   204  LYS204      0.0206
     67  CE        -6.0730   41.7610   -4.2950 C.3   204  LYS204      0.1093
     68  NZ        -4.8790   40.8870   -4.3760 N.3   204  LYS204     -0.1314
     69  N         -5.9370   42.0710    2.2870 N.am  205  ARG205     -0.1963
     70  CA        -6.0740   42.7340    3.5780 C.3   205  ARG205      0.1729
     71  C         -7.5120   43.1330    3.8850 C.2   205  ARG205      0.2616
     72  O         -7.9570   43.0120    5.0190 O.2   205  ARG205     -0.2715
     73  CB        -5.1860   43.9840    3.6450 C.3   205  ARG205      0.0348
     74  CG        -5.2130   44.6430    5.0170 C.3   205  ARG205      0.0492
     75  CD        -4.4810   45.9940    5.0580 C.3   205  ARG205      0.2205
     76  NE        -3.0830   45.8960    4.6480 N.pl3 205  ARG205     -0.0865
     77  CZ        -2.1130   46.6890    5.1010 C.cat 205  ARG205      0.5346
     78  NH1       -2.3850   47.6380    5.9890 N.pl3 205  ARG205      0.1354
     79  NH2       -0.8720   46.5430    4.6540 N.pl3 205  ARG205      0.1354
     80  N         -8.2370   43.6220    2.8810 N.am  206  THR206     -0.1951
     81  CA        -9.6270   44.0160    3.1040 C.3   206  THR206      0.1897
     82  C        -10.4540   42.8500    3.6450 C.2   206  THR206      0.2313
     83  O        -11.3040   43.0360    4.5130 O.2   206  THR206     -0.2863
     84  CB       -10.2810   44.5460    1.8070 C.3   206  THR206      0.1794
     85  OG1       -9.8440   45.8900    1.5760 O.3   206  THR206     -0.2208
     86  CG2      -11.8090   44.5370    1.9280 C.3   206  THR206      0.0378
@<TRIPOS>BOND
     1     7     5    1
     2     5     6    1
     3     5     2    1
     4    47    48   ar
     5    47    45   ar
     6    48    46   ar
     7    45    43   ar
     8    46    44   ar
     9     1     2    1
    10     2     3    1
    11    43    44   ar
    12    43    42    1
    13    42    39    1
    14     3     4    2
    15     3     8   am
    16    41    40    2
    17    32    33    1
    18    32    31    1
    19    30    27    1
    20    30    31    1
    21    39    40    1
    22    39    38    1
    23     8     9    1
    24    68    67    1
    25    27    26    1
    26    27    28    1
    27    38    36   am
    28    67    66    1
    29    34    35    1
    30     9    10    1
    31     9    12    1
    32    11    10    2
    33    28    29    2
    34    36    35    1
    35    36    37    2
    36    66    65    1
    37    10    19   am
    38    12    13    1
    39    19    20    1
    40    19    25    1
    41    65    64    1
    42    20    23    1
    43    20    21    1
    44    25    24    1
    45    22    21    2
    46    13    14    1
    47    23    24    1
    48    14    15    1
    49    64    61    1
    50    49    50    1
    51    59    57    1
    52    56    57    2
    53    56    55    1
    54    57    58    1
    55    55    54    1
    56    54    53    1
    57    60    61    1
    58    60    51   am
    59    15    16    2
    60    61    62    1
    61    53    50    1
    62    50    51    1
    63    51    52    2
    64    85    84    1
    65    16    17    1
    66    16    18    1
    67    84    86    1
    68    84    81    1
    69    62    69   am
    70    62    63    2
    71    69    70    1
    72    80    81    1
    73    80    71   am
    74    81    82    1
    75    70    73    1
    76    70    71    1
    77    73    74    1
    78    82    83    2
    79    71    72    2
    80    76    75    1
    81    76    77    2
    82    79    77    1
    83    74    75    1
    84    77    78    1
