@<TRIPOS>MOLECULE
tmp/2dzbB00.pdb
 149 136 0 0 0
SMALL
GASTEIGER

@<TRIPOS>ATOM
      1  N         -5.2290   31.6910   -9.4960 N.3    20  VAL20      -0.1245
      2  CA        -3.9180   32.2890   -9.2840 C.3    20  VAL20       0.1561
      3  C         -2.7740   31.3160   -9.0070 C.2    20  VAL20       0.2260
      4  O         -2.8710   30.4410   -8.1520 O.2    20  VAL20      -0.2867
      5  CB        -3.9540   33.2870   -8.1090 C.3    20  VAL20       0.0252
      6  CG1       -2.5420   33.8020   -7.8250 C.3    20  VAL20       0.0019
      7  CG2       -4.8910   34.4440   -8.4340 C.3    20  VAL20       0.0019
      8  N          1.0240   31.8990   -8.0960 N.3    22  ASN22      -0.1240
      9  CA         2.0840   32.8450   -7.7550 C.3    22  ASN22       0.1653
     10  C          3.4540   32.1850   -7.8680 C.2    22  ASN22       0.2266
     11  O          3.7400   31.2180   -7.1680 O.2    22  ASN22      -0.2867
     12  CB         1.8860   33.3650   -6.3290 C.3    22  ASN22       0.1155
     13  CG         3.0200   34.2640   -5.8730 C.2    22  ASN22       0.2627
     14  OD1        3.1950   35.3680   -6.3880 O.2    22  ASN22      -0.2716
     15  ND2        3.8000   33.7930   -4.9080 N.am   22  ASN22      -0.0877
     16  N          3.2380   42.3030   -6.3560 N.3    52  THR52      -0.1218
     17  CA         2.6200   43.5900   -6.6350 C.3    52  THR52       0.1862
     18  C          2.3170   44.3410   -5.3410 C.2    52  THR52       0.2287
     19  O          2.9930   44.1500   -4.3260 O.2    52  THR52      -0.2866
     20  CB         1.3130   43.3970   -7.4270 C.3    52  THR52       0.1770
     21  OG1        0.4250   42.5590   -6.6780 O.3    52  THR52      -0.2211
     22  CG2        1.5990   42.7380   -8.7730 C.3    52  THR52       0.0375
     23  N          0.3590   37.7290  -15.6870 N.3    78  ASP78      -0.1239
     24  CA         0.3410   38.9170  -14.8500 C.3    78  ASP78       0.1674
     25  C          1.7300   39.5300  -14.7740 C.2    78  ASP78       0.2266
     26  O          2.5280   39.1830  -13.9050 O.2    78  ASP78      -0.2867
     27  CB        -0.1610   38.5660  -13.4450 C.3    78  ASP78       0.1410
     28  CG        -0.3230   39.7890  -12.5590 C.2    78  ASP78       0.3668
     29  OD1       -0.1220   40.9160  -13.0570 O.co2  78  ASP78      -0.2456
     30  OD2       -0.6600   39.6280  -11.3680 O.co2  78  ASP78      -0.2456
     31  N         -2.6050   40.5430  -18.2130 N.3    97  ASN97      -0.1240
     32  CA        -3.0550   41.1300  -16.9530 C.3    97  ASN97       0.1653
     33  C         -2.0030   42.1320  -16.4840 C.2    97  ASN97       0.2266
     34  O         -0.9770   41.7500  -15.9190 O.2    97  ASN97      -0.2867
     35  CB        -3.2220   40.0190  -15.9120 C.3    97  ASN97       0.1155
     36  CG        -3.8180   40.5150  -14.6100 C.2    97  ASN97       0.2627
     37  OD1       -4.4280   41.5850  -14.5660 O.2    97  ASN97      -0.2716
     38  ND2       -3.6350   39.7520  -13.5430 N.am   97  ASN97      -0.0877
     39  N         -1.1540   45.1360  -14.0060 N.3    99  VAL99      -0.1245
     40  CA        -1.5200   45.9070  -12.8210 C.3    99  VAL99       0.1561
     41  C         -1.2250   47.4000  -12.9500 C.2    99  VAL99       0.2260
     42  O         -1.8130   48.2050  -12.2350 O.2    99  VAL99      -0.2867
     43  CB        -0.8240   45.3640  -11.5470 C.3    99  VAL99       0.0252
     44  CG1       -1.2150   43.9040  -11.3260 C.3    99  VAL99       0.0019
     45  CG2        0.6900   45.5130  -11.6650 C.3    99  VAL99       0.0019
     46  N         -6.2060   43.2230  -19.4220 N.3   119  VAL119     -0.1245
     47  CA        -6.9170   43.6250  -18.2160 C.3   119  VAL119      0.1561
     48  C         -6.3700   44.9640  -17.7630 C.2   119  VAL119      0.2260
     49  O         -5.1690   45.1070  -17.5410 O.2   119  VAL119     -0.2867
     50  CB        -6.7080   42.6250  -17.0620 C.3   119  VAL119      0.0252
     51  CG1       -7.3000   43.1870  -15.7770 C.3   119  VAL119      0.0019
     52  CG2       -7.3420   41.2960  -17.4020 C.3   119  VAL119      0.0019
     53  N         -6.2530   47.2650  -14.8210 N.3   121  MET121     -0.1245
     54  CA        -6.5030   47.3500  -13.3880 C.3   121  MET121      0.1570
     55  C         -6.1060   48.7340  -12.8910 C.2   121  MET121      0.2261
     56  O         -5.1710   49.3450  -13.4150 O.2   121  MET121     -0.2867
     57  CB        -5.6960   46.2840  -12.6380 C.3   121  MET121      0.0387
     58  CG        -6.0710   46.1390  -11.1670 C.3   121  MET121      0.0595
     59  SD        -4.9260   45.1150  -10.1940 S.3   121  MET121     -0.1393
     60  CE        -3.6510   46.3700   -9.7620 C.3   121  MET121      0.0692
     61  N        -10.7530   46.2810  -14.0660 N.3   158  ASP158     -0.1239
     62  CA       -10.5820   45.7740  -12.7110 C.3   158  ASP158      0.1674
     63  C        -10.2270   46.9710  -11.8220 C.2   158  ASP158      0.2266
     64  O         -9.2320   47.6490  -12.0570 O.2   158  ASP158     -0.2867
     65  CB        -9.4690   44.7160  -12.7110 C.3   158  ASP158      0.1410
     66  CG        -9.2780   44.0560  -11.3600 C.2   158  ASP158      0.3668
     67  OD1       -9.6800   44.6450  -10.3400 O.co2 158  ASP158     -0.2456
     68  OD2       -8.7150   42.9410  -11.3200 O.co2 158  ASP158     -0.2456
     69  N         -8.7360   46.1440   -6.1880 N.3   161  PHE161     -0.1241
     70  CA        -8.9480   46.2060   -4.7540 C.3   161  PHE161      0.1605
     71  C         -7.6310   46.0580   -3.9970 C.2   161  PHE161      0.2264
     72  O         -6.7830   45.2500   -4.3650 O.2   161  PHE161     -0.2867
     73  CB        -9.9410   45.1290   -4.3120 C.3   161  PHE161      0.0534
     74  CG       -11.3440   45.3880   -4.7700 C.ar  161  PHE161     -0.0203
     75  CD1      -12.1240   46.3440   -4.1300 C.ar  161  PHE161     -0.0042
     76  CD2      -11.8760   44.7020   -5.8530 C.ar  161  PHE161     -0.0042
     77  CE1      -13.4160   46.6170   -4.5570 C.ar  161  PHE161     -0.0003
     78  CE2      -13.1760   44.9670   -6.2910 C.ar  161  PHE161     -0.0003
     79  CZ       -13.9420   45.9250   -5.6430 C.ar  161  PHE161     -0.0000
     80  N         -5.1010   47.9740   -3.9570 N.3   163  PHE163     -0.1241
     81  CA        -3.9900   48.7280   -4.5390 C.3   163  PHE163      0.1605
     82  C         -4.1220   50.2250   -4.2980 C.2   163  PHE163      0.2264
     83  O         -4.8800   50.9170   -4.9790 O.2   163  PHE163     -0.2867
     84  CB        -3.8660   48.4490   -6.0380 C.3   163  PHE163      0.0534
     85  CG        -3.3750   47.0660   -6.3530 C.ar  163  PHE163     -0.0203
     86  CD1       -4.2570   45.9910   -6.3980 C.ar  163  PHE163     -0.0042
     87  CD2       -2.0180   46.8310   -6.5730 C.ar  163  PHE163     -0.0042
     88  CE1       -3.7950   44.7010   -6.6550 C.ar  163  PHE163     -0.0003
     89  CE2       -1.5460   45.5490   -6.8310 C.ar  163  PHE163     -0.0003
     90  CZ        -2.4370   44.4790   -6.8730 C.ar  163  PHE163     -0.0000
     91  N        -13.4950   42.3530  -13.9680 N.3   188  LEU188     -0.1245
     92  CA       -12.7890   41.3480  -13.1910 C.3   188  LEU188      0.1561
     93  C        -12.4690   41.9580  -11.8360 C.2   188  LEU188      0.2260
     94  O        -12.1920   43.1530  -11.7440 O.2   188  LEU188     -0.2867
     95  CB       -11.4770   40.9500  -13.8890 C.3   188  LEU188      0.0270
     96  CG       -10.4390   40.2000  -13.0380 C.3   188  LEU188      0.0019
     97  CD1      -10.9200   38.7750  -12.7940 C.3   188  LEU188      0.0001
     98  CD2       -9.0830   40.1720  -13.7510 C.3   188  LEU188      0.0001
     99  N        -10.6680   40.8550   -7.7490 N.3   190  GLY190     -0.1225
    100  CA        -9.9250   39.8800   -6.9850 C.3   190  GLY190      0.1811
    101  C         -9.7370   40.3680   -5.5580 C.2   190  GLY190      0.2280
    102  O         -9.0000   41.3000   -5.2870 O.2   190  GLY190     -0.2866
    103  N         -9.5410   37.8000   -3.0910 N.3   192  SER192     -0.1202
    104  CA        -9.0240   36.6290   -2.3910 C.3   192  SER192      0.2020
    105  C         -7.8370   36.9730   -1.4990 C.2   192  SER192      0.2619
    106  O         -6.8260   37.5030   -1.9510 O.2   192  SER192     -0.2717
    107  CB        -8.6020   35.5970   -3.4360 C.3   192  SER192      0.2103
    108  OG        -9.7700   34.9760   -3.9910 O.3   192  SER192     -0.2182
    109  N         -7.9930   36.6550   -0.2170 N.am  193  ARG193     -0.1965
    110  CA        -6.9580   36.8270    0.7960 C.3   193  ARG193      0.1729
    111  C         -6.4610   38.2400    1.0590 C.2   193  ARG193      0.2616
    112  O         -5.5300   38.4270    1.8390 O.2   193  ARG193     -0.2715
    113  CB        -5.7670   35.9380    0.4450 C.3   193  ARG193      0.0348
    114  CG        -6.1420   34.4700    0.3620 C.3   193  ARG193      0.0492
    115  CD        -4.9650   33.5980   -0.0010 C.3   193  ARG193      0.2205
    116  NE        -5.3230   32.1890    0.1220 N.pl3 193  ARG193     -0.0865
    117  CZ        -4.5140   31.1840   -0.1850 C.cat 193  ARG193      0.5346
    118  NH1       -3.2950   31.4330   -0.6410 N.pl3 193  ARG193      0.1354
    119  NH2       -4.9250   29.9330   -0.0290 N.pl3 193  ARG193      0.1354
    120  N         -7.0780   39.2340    0.4370 N.am  194  LYS194     -0.1977
    121  CA        -6.6250   40.6040    0.6360 C.3   194  LYS194      0.1596
    122  C         -6.9640   41.1970    1.9950 C.2   194  LYS194      0.2287
    123  O         -7.8410   40.7020    2.7150 O.2   194  LYS194     -0.2864
    124  CB        -7.1550   41.4970   -0.4900 C.3   194  LYS194      0.0298
    125  CG        -6.5850   41.0950   -1.8340 C.3   194  LYS194      0.0038
    126  CD        -6.7480   42.1710   -2.8830 C.3   194  LYS194      0.0206
    127  CE        -6.1360   41.7250   -4.2050 C.3   194  LYS194      0.1093
    128  NZ        -6.4510   42.6890   -5.2940 N.3   194  LYS194     -0.1314
    129  N        -10.7430   36.6390   -9.7200 N.3   229  ARG229     -0.1245
    130  CA        -9.3570   36.1780   -9.5920 C.3   229  ARG229      0.1563
    131  C         -9.2920   35.5860   -8.1940 C.2   229  ARG229      0.2260
    132  O         -9.3500   36.3150   -7.2070 O.2   229  ARG229     -0.2867
    133  CB        -8.3770   37.3480   -9.7260 C.3   229  ARG229      0.0307
    134  CG        -6.8910   36.9320   -9.7190 C.3   229  ARG229      0.0489
    135  CD        -5.9900   38.1200  -10.0890 C.3   229  ARG229      0.2205
    136  NE        -4.5650   37.7800  -10.0620 N.pl3 229  ARG229     -0.0865
    137  CZ        -3.8280   37.7000   -8.9580 C.cat 229  ARG229      0.5346
    138  NH1       -4.3710   37.9390   -7.7720 N.pl3 229  ARG229      0.1354
    139  NH2       -2.5390   37.3840   -9.0430 N.pl3 229  ARG229      0.1354
    140  N         -7.8470   32.2690   -5.2950 N.3   231  HIS231     -0.1241
    141  CA        -6.8130   31.3170   -4.9100 C.3   231  HIS231      0.1621
    142  C         -7.4450   29.9510   -4.6530 C.2   231  HIS231      0.2264
    143  O         -6.9370   28.9330   -5.1210 O.2   231  HIS231     -0.2867
    144  CB        -6.0490   31.7850   -3.6640 C.3   231  HIS231      0.0745
    145  CG        -4.9850   32.8010   -3.9530 C.ar  231  HIS231      0.0817
    146  ND1       -5.2450   34.1530   -4.0370 N.ar  231  HIS231     -0.2268
    147  CD2       -3.6630   32.6570   -4.2120 C.ar  231  HIS231      0.1154
    148  CE1       -4.1300   34.7970   -4.3360 C.ar  231  HIS231      0.1986
    149  NE2       -3.1550   33.9130   -4.4480 N.ar  231  HIS231     -0.2212
@<TRIPOS>BOND
     1    46    47    1
     2    47    48    1
     3    47    50    1
     4    31    32    1
     5    48    49    2
     6    52    50    1
     7    50    51    1
     8    32    33    1
     9    32    35    1
    10    33    34    2
    11    35    36    1
    12    23    24    1
    13    24    25    1
    14    24    27    1
    15    53    54    1
    16    25    26    2
    17    36    37    2
    18    36    38   am
    19    61    62    1
    20    39    40    1
    21    91    92    1
    22    95    92    1
    23    95    96    1
    24    98    96    1
    25    27    28    1
    26    56    55    2
    27    54    55    1
    28    54    57    1
    29    92    93    1
    30    29    28   ar
    31    96    97    1
    32    41    40    1
    33    41    42    2
    34    40    43    1
    35    65    62    1
    36    65    66    1
    37    62    63    1
    38    57    58    1
    39    28    30   ar
    40    64    63    2
    41    93    94    2
    42    45    43    1
    43    43    44    1
    44    66    68   ar
    45    66    67   ar
    46    58    59    1
    47    59    60    1
    48   135   136    1
    49   135   134    1
    50   136   137    2
    51   133   134    1
    52   133   130    1
    53   129   130    1
    54   130   131    1
    55     1     2    1
    56     2     3    1
    57     2     5    1
    58   139   137    1
    59     3     4    2
    60   137   138    1
    61    22    20    1
    62     7     5    1
    63   131   132    2
    64     5     6    1
    65     8     9    1
    66    10     9    1
    67    10    11    2
    68     9    12    1
    69    99   100    1
    70    20    21    1
    71    20    17    1
    72   100   101    1
    73    90    89   ar
    74    90    88   ar
    75    89    87   ar
    76    88    86   ar
    77    17    16    1
    78    17    18    1
    79    87    85   ar
    80    86    85   ar
    81    14    13    2
    82    85    84    1
    83    12    13    1
    84    78    76   ar
    85    78    79   ar
    86    69    70    1
    87    84    81    1
    88    13    15   am
    89    76    74   ar
    90    79    77   ar
    91   101   102    2
    92    18    19    2
    93   140   141    1
    94   128   127    1
    95   143   142    2
    96    83    82    2
    97   141   142    1
    98   141   144    1
    99    74    73    1
   100    74    75   ar
   101    70    73    1
   102    70    71    1
   103    77    75   ar
   104    81    82    1
   105    81    80    1
   106   149   148   ar
   107   149   147   ar
   108    72    71    2
   109   148   146   ar
   110   147   145   ar
   111   127   126    1
   112   146   145   ar
   113   108   107    1
   114   145   144    1
   115   107   104    1
   116   103   104    1
   117   126   125    1
   118   104   105    1
   119   106   105    2
   120   125   124    1
   121   105   109   am
   122   118   117    1
   123   124   121    1
   124   109   110    1
   125   117   119    1
   126   117   116    2
   127   115   116    1
   128   115   114    1
   129   114   113    1
   130   120   121    1
   131   120   111   am
   132   113   110    1
   133   121   122    1
   134   110   111    1
   135   111   112    2
   136   122   123    2
