@<TRIPOS>MOLECULE
tmp/2dzeB00.pdb
 155 154 0 0 0
SMALL
GASTEIGER

@<TRIPOS>ATOM
      1  N         11.2230   24.5630  -13.9090 N.3    27  PHE27      -0.1241
      2  CA        11.2910   25.5500  -12.8480 C.3    27  PHE27       0.1605
      3  C         12.5730   25.4180  -12.0900 C.2    27  PHE27       0.2264
      4  O         13.2090   24.3640  -12.1140 O.2    27  PHE27      -0.2867
      5  CB        10.0800   25.4020  -11.9150 C.3    27  PHE27       0.0534
      6  CG        10.0330   24.1110  -11.1510 C.ar   27  PHE27      -0.0203
      7  CD1       10.6390   24.0030   -9.8960 C.ar   27  PHE27      -0.0042
      8  CD2        9.3360   23.0360  -11.6410 C.ar   27  PHE27      -0.0042
      9  CE1       10.5930   22.7990   -9.1810 C.ar   27  PHE27      -0.0003
     10  CE2        9.2860   21.8360  -10.9290 C.ar   27  PHE27      -0.0003
     11  CZ         9.8910   21.7370   -9.6920 C.ar   27  PHE27      -0.0000
     12  N          5.6460   18.9370   -0.8530 N.3    36  ASP36      -0.1239
     13  CA         5.4680   18.8230   -2.2900 C.3    36  ASP36       0.1674
     14  C          4.9500   20.1580   -2.9020 C.2    36  ASP36       0.2266
     15  O          4.3360   20.9970   -2.2120 O.2    36  ASP36      -0.2867
     16  CB         4.4150   17.7730   -2.6260 C.3    36  ASP36       0.1410
     17  CG         4.8690   16.3440   -2.3570 C.2    36  ASP36       0.3668
     18  OD1        6.0640   16.0810   -2.1350 O.co2  36  ASP36      -0.2456
     19  OD2        4.0420   15.4280   -2.4560 O.co2  36  ASP36      -0.2456
     20  N          2.0880   21.5840   -5.4480 N.3    38  GLU38      -0.1245
     21  CA         0.7870   21.1560   -5.8790 C.3    38  GLU38       0.1567
     22  C          0.4140   21.9490   -7.1210 C.2    38  GLU38       0.2260
     23  O          0.0320   23.1420   -7.0250 O.2    38  GLU38      -0.2867
     24  CB        -0.2720   21.4380   -4.8010 C.3    38  GLU38       0.0388
     25  CG        -1.6060   20.7440   -5.0900 C.3    38  GLU38       0.1160
     26  CD        -2.5820   20.7260   -3.9090 C.2    38  GLU38       0.3649
     27  OE1       -2.4270   21.4810   -2.9140 O.co2  38  GLU38      -0.2457
     28  OE2       -3.5240   19.9390   -3.9920 O.co2  38  GLU38      -0.2457
     29  N         -7.3450   18.6000  -13.1590 N.3    57  ASP57      -0.1225
     30  CA        -6.4840   17.6400  -12.4560 C.3    57  ASP57       0.1805
     31  C         -5.5760   18.4150  -11.5330 C.2    57  ASP57       0.2598
     32  O         -5.2800   19.5980  -11.7460 O.2    57  ASP57      -0.2718
     33  CB        -5.5970   16.8060  -13.4130 C.3    57  ASP57       0.1424
     34  CG        -6.1550   15.3970  -13.6850 C.2    57  ASP57       0.3668
     35  OD1       -6.7630   14.7580  -12.7590 O.co2  57  ASP57      -0.2456
     36  OD2       -6.0740   14.8590  -14.7970 O.co2  57  ASP57      -0.2456
     37  N         -5.0990   17.7310  -10.4950 N.am   58  THR58      -0.1939
     38  CA        -4.2170   18.3700   -9.5090 C.3    58  THR58       0.2028
     39  C         -3.1130   17.3500   -9.2690 C.2    58  THR58       0.2642
     40  O         -3.4130   16.1710   -9.0010 O.2    58  THR58      -0.2714
     41  CB        -4.9960   18.6330   -8.1840 C.3    58  THR58       0.1808
     42  OG1       -6.0950   19.5260   -8.4030 O.3    58  THR58      -0.2208
     43  CG2       -4.1190   19.3520   -7.1710 C.3    58  THR58       0.0379
     44  N         -1.8660   17.7950   -9.3370 N.am   59  LEU59      -0.1963
     45  CA        -0.6990   16.9140   -9.3170 C.3    59  LEU59       0.1728
     46  C          0.2670   17.3000   -8.2060 C.2    59  LEU59       0.2616
     47  O          0.7880   18.4510   -8.1730 O.2    59  LEU59      -0.2715
     48  CB         0.0200   16.9890  -10.6600 C.3    59  LEU59       0.0311
     49  CG         1.1750   16.0260  -10.9050 C.3    59  LEU59       0.0022
     50  CD1        0.6480   14.5870  -11.0100 C.3    59  LEU59       0.0001
     51  CD2        1.8870   16.4250  -12.2030 C.3    59  LEU59       0.0001
     52  N          0.5640   16.3530   -7.3120 N.am   60  LEU60      -0.1963
     53  CA         1.5320   16.6710   -6.2660 C.3    60  LEU60       0.1728
     54  C          2.8640   16.1890   -6.7620 C.2    60  LEU60       0.2616
     55  O          2.9940   15.0010   -7.1960 O.2    60  LEU60      -0.2715
     56  CB         1.2160   15.9650   -4.9440 C.3    60  LEU60       0.0311
     57  CG         0.0140   16.5400   -4.1950 C.3    60  LEU60       0.0022
     58  CD1       -0.5890   15.5570   -3.1200 C.3    60  LEU60       0.0001
     59  CD2        0.3680   17.9030   -3.5940 C.3    60  LEU60       0.0001
     60  N          3.8760   17.0450   -6.6410 N.am   61  VAL61      -0.1963
     61  CA         5.1850   16.7240   -7.1880 C.3    61  VAL61       0.1727
     62  C          6.2140   16.9470   -6.0750 C.2    61  VAL61       0.2617
     63  O          6.2420   17.9870   -5.4380 O.2    61  VAL61      -0.2715
     64  CB         5.4530   17.5680   -8.4140 C.3    61  VAL61       0.0290
     65  CG1        6.8450   17.3050   -8.9550 C.3    61  VAL61       0.0023
     66  CG2        4.3600   17.2920   -9.5130 C.3    61  VAL61       0.0023
     67  N          7.0410   15.9370   -5.8120 N.am   62  GLY62      -0.1941
     68  CA         8.1100   16.1260   -4.8410 C.3    62  GLY62       0.1998
     69  C          8.7090   14.7870   -4.4350 C.2    62  GLY62       0.2481
     70  O          8.3010   13.7490   -4.9480 O.2    62  GLY62      -0.2729
     71  N          9.7350   14.8020   -3.5950 N.am   63  PRO63      -0.2715
     72  CA        10.2980   16.0140   -2.9980 C.3    63  PRO63       0.1536
     73  C         11.0770   16.8100   -4.0680 C.2    63  PRO63       0.2598
     74  O         11.4790   16.2400   -5.0930 O.2    63  PRO63      -0.2715
     75  CB        11.2860   15.4370   -1.9840 C.3    63  PRO63       0.0310
     76  CG        11.8230   14.2570   -2.6900 C.3    63  PRO63       0.0237
     77  CD        10.5180   13.5910   -3.2580 C.3    63  PRO63       0.0939
     78  N         11.3100   18.0920   -3.8190 N.am   64  ILE64      -0.1964
     79  CA        11.9070   18.9800   -4.8070 C.3    64  ILE64       0.1712
     80  C         13.3830   19.2770   -4.5020 C.2    64  ILE64       0.2458
     81  O         13.6960   19.8900   -3.4630 O.2    64  ILE64      -0.2730
     82  CB        11.0980   20.3260   -4.8280 C.3    64  ILE64       0.0289
     83  CG1        9.5820   20.0540   -4.8930 C.3    64  ILE64       0.0022
     84  CG2       11.5770   21.2770   -5.9480 C.3    64  ILE64       0.0023
     85  CD1        9.0510   19.4560   -6.2160 C.3    64  ILE64       0.0001
     86  N         14.2720   18.8750   -5.4160 N.am   65  PRO65      -0.2727
     87  CA        15.7120   19.2190   -5.3430 C.3    65  PRO65       0.1402
     88  C         16.0660   20.6550   -5.6830 C.2    65  PRO65       0.2269
     89  O         15.3190   21.3090   -6.4300 O.2    65  PRO65      -0.2865
     90  CB        16.3520   18.3070   -6.3930 C.3    65  PRO65       0.0296
     91  CG        15.2580   17.7650   -7.2170 C.3    65  PRO65       0.0237
     92  CD        13.9500   18.0200   -6.5590 C.3    65  PRO65       0.0939
     93  N         14.4000   21.7860  -12.4310 N.3    69  ASN69      -0.1225
     94  CA        13.5430   20.5900  -12.3820 C.3    69  ASN69       0.1785
     95  C         12.6670   20.6810  -13.6030 C.2    69  ASN69       0.2597
     96  O         12.3260   21.7950  -14.0130 O.2    69  ASN69      -0.2718
     97  CB        12.6530   20.6830  -11.1480 C.3    69  ASN69       0.1169
     98  CG        13.4060   20.4050   -9.8920 C.2    69  ASN69       0.2627
     99  OD1       13.5360   19.2590   -9.5180 O.2    69  ASN69      -0.2716
    100  ND2       13.9230   21.4390   -9.2320 N.am   69  ASN69      -0.0877
    101  N         12.3370   19.5670  -14.2240 N.am   70  LYS70      -0.1966
    102  CA        11.5050   19.6300  -15.4260 C.3    70  LYS70       0.1728
    103  C         10.6100   18.4320  -15.4150 C.2    70  LYS70       0.2616
    104  O         11.0780   17.3130  -15.0770 O.2    70  LYS70      -0.2715
    105  CB        12.3830   19.5500  -16.6840 C.3    70  LYS70       0.0311
    106  CG        11.5470   19.6220  -17.9690 C.3    70  LYS70       0.0038
    107  CD        12.1820   18.8220  -19.1150 C.3    70  LYS70       0.0206
    108  CE        12.8520   19.7700  -20.0300 C.3    70  LYS70       0.1093
    109  NZ        13.7640   19.0250  -20.9930 N.3    70  LYS70      -0.1314
    110  N          9.3200   18.6320  -15.7030 N.am   71  PHE71      -0.1960
    111  CA         8.3700   17.5210  -15.7360 C.3    71  PHE71       0.1771
    112  C          7.1940   17.8070  -16.6850 C.2    71  PHE71       0.2619
    113  O          6.9970   18.9590  -17.1100 O.2    71  PHE71      -0.2715
    114  CB         7.8470   17.1700  -14.3100 C.3    71  PHE71       0.0574
    115  CG         6.8550   18.1410  -13.7740 C.ar   71  PHE71      -0.0200
    116  CD1        7.2640   19.3990  -13.3060 C.ar   71  PHE71      -0.0042
    117  CD2        5.4890   17.8580  -13.8070 C.ar   71  PHE71      -0.0042
    118  CE1        6.3110   20.3490  -12.8610 C.ar   71  PHE71      -0.0003
    119  CE2        4.5370   18.8030  -13.3750 C.ar   71  PHE71      -0.0003
    120  CZ         4.9510   20.0470  -12.8780 C.ar   71  PHE71      -0.0000
    121  N          6.4220   16.7740  -16.9860 N.am   72  VAL72      -0.1963
    122  CA         5.2010   16.8990  -17.7720 C.3    72  VAL72       0.1727
    123  C          3.9800   16.6920  -16.8780 C.2    72  VAL72       0.2616
    124  O          3.8650   15.6470  -16.1640 O.2    72  VAL72      -0.2715
    125  CB         5.2050   15.8840  -18.8900 C.3    72  VAL72       0.0290
    126  CG1        3.9010   15.9330  -19.6550 C.3    72  VAL72       0.0023
    127  CG2        6.3540   16.1760  -19.8870 C.3    72  VAL72       0.0023
    128  N          3.0780   17.6680  -16.9100 N.am   73  PHE73      -0.1960
    129  CA         1.8230   17.6350  -16.2120 C.3    73  PHE73       0.1771
    130  C          0.8130   17.2580  -17.2720 C.2    73  PHE73       0.2619
    131  O          0.5200   18.0840  -18.1780 O.2    73  PHE73      -0.2715
    132  CB         1.5240   19.0250  -15.6640 C.3    73  PHE73       0.0574
    133  CG         0.2340   19.1260  -14.8080 C.ar   73  PHE73      -0.0200
    134  CD1       -0.5590   18.0010  -14.5370 C.ar   73  PHE73      -0.0042
    135  CD2       -0.1660   20.3660  -14.3110 C.ar   73  PHE73      -0.0042
    136  CE1       -1.7660   18.1040  -13.7720 C.ar   73  PHE73      -0.0003
    137  CE2       -1.3550   20.4780  -13.5120 C.ar   73  PHE73      -0.0003
    138  CZ        -2.1550   19.3410  -13.2730 C.ar   73  PHE73      -0.0000
    139  N          0.3260   16.0080  -17.1970 N.am   74  GLU74      -0.1977
    140  CA        -0.7380   15.5380  -18.1130 C.3    74  GLU74       0.1602
    141  C         -2.0700   15.5940  -17.3700 C.2    74  GLU74       0.2287
    142  O         -2.2390   14.9670  -16.2930 O.2    74  GLU74      -0.2864
    143  CB        -0.4490   14.1280  -18.6660 C.3    74  GLU74       0.0415
    144  CG        -1.5120   13.6610  -19.6970 C.3    74  GLU74       0.1163
    145  CD        -1.2110   12.3240  -20.3820 C.2    74  GLU74       0.3649
    146  OE1       -2.1800   11.6890  -20.9200 O.co2  74  GLU74      -0.2457
    147  OE2       -0.0400   11.9360  -20.4540 O.co2  74  GLU74      -0.2457
    148  N         -1.0460   24.4280    0.4510 N.3   103  ASP103     -0.1239
    149  CA        -2.3610   24.9830    0.1200 C.3   103  ASP103      0.1674
    150  C         -2.4460   26.4700   -0.2140 C.2   103  ASP103      0.2266
    151  O         -3.5580   27.0080   -0.2610 O.2   103  ASP103     -0.2867
    152  CB        -3.4130   24.6260    1.2040 C.3   103  ASP103      0.1410
    153  CG        -3.3450   23.1670    1.5990 C.2   103  ASP103      0.3668
    154  OD1       -3.3480   22.3090    0.6720 O.co2 103  ASP103     -0.2456
    155  OD2       -3.2380   22.7860    2.7970 O.co2 103  ASP103     -0.2456
@<TRIPOS>BOND
     1   109   108    1
     2   146   145   ar
     3   147   145   ar
     4   145   144    1
     5   108   107    1
     6   127   125    1
     7   144   143    1
     8   126   125    1
     9   107   106    1
    10   125   122    1
    11   143   140    1
    12   131   130    2
    13   140   141    1
    14   140   139    1
    15   106   105    1
    16   122   121    1
    17   122   123    1
    18   141   142    2
    19   130   139   am
    20   130   129    1
    21   113   112    2
    22   121   112   am
    23   128   123   am
    24   128   129    1
    25   123   124    2
    26   112   111    1
    27   105   102    1
    28   129   132    1
    29   111   110    1
    30   111   114    1
    31   110   103   am
    32   132   133    1
    33   102   103    1
    34   102   101    1
    35   103   104    2
    36   133   134   ar
    37   133   135   ar
    38    36    34   ar
    39   134   136   ar
    40   135   137   ar
    41   114   115    1
    42   101    95   am
    43    96    95    2
    44     1     2    1
    45   117   115   ar
    46   117   119   ar
    47   115   116   ar
    48   136   138   ar
    49    34    33    1
    50    34    35   ar
    51    95    94    1
    52   137   138   ar
    53    33    30    1
    54   119   120   ar
    55   116   118   ar
    56    29    30    1
    57   120   118   ar
    58     2     3    1
    59     2     5    1
    60    30    31    1
    61    93    94    1
    62    94    97    1
    63    51    49    1
    64     4     3    2
    65     5     6    1
    66    32    31    2
    67     8     6   ar
    68     8    10   ar
    69    31    37   am
    70     6     7   ar
    71    97    98    1
    72    50    49    1
    73    10    11   ar
    74    49    48    1
    75    48    45    1
    76    37    38    1
    77     7     9   ar
    78    98    99    2
    79    98   100   am
    80    11     9   ar
    81    66    64    1
    82    38    39    1
    83    38    41    1
    84    44    45    1
    85    44    39   am
    86    45    46    1
    87    39    40    2
    88    65    64    1
    89    64    61    1
    90    42    41    1
    91    46    47    2
    92    46    52   am
    93    41    43    1
    94    52    53    1
    95    91    92    1
    96    91    90    1
    97    55    54    2
    98    61    60    1
    99    61    62    1
   100    22    23    2
   101    22    21    1
   102    54    60   am
   103    54    53    1
   104    92    86    1
   105    89    88    2
   106    90    87    1
   107    53    56    1
   108    85    83    1
   109    62    67   am
   110    62    63    2
   111    84    82    1
   112    21    20    1
   113    21    24    1
   114    67    68    1
   115    88    87    1
   116    86    87    1
   117    86    80   am
   118    74    73    2
   119    25    24    1
   120    25    26    1
   121    70    69    2
   122    56    57    1
   123    83    82    1
   124    68    69    1
   125    82    79    1
   126    79    80    1
   127    79    78    1
   128    80    81    2
   129    69    71   am
   130    57    59    1
   131    57    58    1
   132    73    78   am
   133    73    72    1
   134    28    26   ar
   135    26    27   ar
   136    71    77    1
   137    71    72    1
   138    77    76    1
   139    72    75    1
   140    14    13    1
   141    14    15    2
   142    76    75    1
   143    16    17    1
   144    16    13    1
   145    19    17   ar
   146    17    18   ar
   147    13    12    1
   148   151   150    2
   149   150   149    1
   150   149   148    1
   151   149   152    1
   152   154   153   ar
   153   152   153    1
   154   153   155   ar
