@<TRIPOS>MOLECULE
tmp/2e0aB00.pdb
 194 187 0 0 0
SMALL
GASTEIGER

@<TRIPOS>ATOM
      1  N         13.5000    8.3660   16.9940 N.3   232  GLU232     -0.1231
      2  CA        13.8390    7.5620   18.1660 C.3   232  GLU232      0.1699
      3  C         15.0370    8.1160   18.9420 C.2   232  GLU232      0.2592
      4  O         15.0400    8.1200   20.1750 O.2   232  GLU232     -0.2718
      5  CB        14.1280    6.1170   17.7520 C.3   232  GLU232      0.0402
      6  CG        12.9150    5.3380   17.2270 C.3   232  GLU232      0.1161
      7  CD        11.7730    5.2930   18.2300 C.2   232  GLU232      0.3649
      8  OE1       12.0390    5.1090   19.4380 O.co2 232  GLU232     -0.2457
      9  OE2       10.6080    5.4410   17.8050 O.co2 232  GLU232     -0.2457
     10  N         16.0620    8.5670   18.2250 N.am  233  LEU233     -0.1980
     11  CA        17.2390    9.1170   18.8810 C.3   233  LEU233      0.1596
     12  C         16.8770   10.4440   19.5420 C.2   233  LEU233      0.2287
     13  O         17.4030   10.7780   20.6060 O.2   233  LEU233     -0.2864
     14  CB        18.3800    9.3310   17.8710 C.3   233  LEU233      0.0297
     15  CG        19.0000    8.0540   17.2930 C.3   233  LEU233      0.0022
     16  CD1       20.1080    8.4180   16.2870 C.3   233  LEU233      0.0001
     17  CD2       19.5570    7.2060   18.4360 C.3   233  LEU233      0.0001
     18  N         13.9120   11.2820   20.7900 N.3   235  LYS235     -0.1231
     19  CA        13.1230   11.0020   21.9880 C.3   235  LYS235      0.1693
     20  C         14.0480   10.6170   23.1350 C.2   235  LYS235      0.2592
     21  O         13.8150   10.9810   24.2840 O.2   235  LYS235     -0.2718
     22  CB        12.1280    9.8620   21.7490 C.3   235  LYS235      0.0285
     23  CG        10.8560   10.2650   20.9990 C.3   235  LYS235      0.0035
     24  CD         9.8570    9.1090   20.9650 C.3   235  LYS235      0.0206
     25  CE        10.4060    7.9140   20.1830 C.3   235  LYS235      0.1093
     26  NZ         9.4330    6.7690   20.1260 N.3   235  LYS235     -0.1314
     27  N         15.0930    9.8570   22.8170 N.am  236  ASN236     -0.1960
     28  CA        16.0610    9.4370   23.8260 C.3   236  ASN236      0.1819
     29  C         16.8360   10.6130   24.4100 C.2   236  ASN236      0.2621
     30  O         17.0560   10.6730   25.6290 O.2   236  ASN236     -0.2715
     31  CB        17.0580    8.4310   23.2310 C.3   236  ASN236      0.1195
     32  CG        16.4340    7.0870   22.9840 C.2   236  ASN236      0.2630
     33  OD1       15.3630    6.7980   23.5150 O.2   236  ASN236     -0.2716
     34  ND2       17.0970    6.2460   22.1870 N.am  236  ASN236     -0.0877
     35  N         17.2560   11.5260   23.5340 N.am  237  ALA237     -0.1977
     36  CA        18.0280   12.7050   23.9390 C.3   237  ALA237      0.1597
     37  C         17.1660   13.6620   24.7480 C.2   237  ALA237      0.2287
     38  O         17.6200   14.2630   25.7220 O.2   237  ALA237     -0.2864
     39  CB        18.5760   13.4130   22.7220 C.3   237  ALA237      0.0319
     40  N         14.3870   12.8380   26.5310 N.3   239  ARG239     -0.1231
     41  CA        14.0880   12.2610   27.8330 C.3   239  ARG239      0.1694
     42  C         15.3130   12.3880   28.7530 C.2   239  ARG239      0.2591
     43  O         15.1890   12.7790   29.9150 O.2   239  ARG239     -0.2718
     44  CB        13.7010   10.7930   27.7180 C.3   239  ARG239      0.0321
     45  CG        13.4800   10.1620   29.0770 C.3   239  ARG239      0.0489
     46  CD        13.5380    8.6560   29.0410 C.3   239  ARG239      0.2205
     47  NE        13.5840    8.1320   30.4020 N.pl3 239  ARG239     -0.0865
     48  CZ        14.0570    6.9380   30.7300 C.cat 239  ARG239      0.5346
     49  NH1       14.5320    6.1290   29.7900 N.pl3 239  ARG239      0.1354
     50  NH2       14.0640    6.5580   32.0000 N.pl3 239  ARG239      0.1354
     51  N         16.5010   12.0770   28.2320 N.am  240  ALA240     -0.1980
     52  CA        17.7130   12.1590   29.0500 C.3   240  ALA240      0.1597
     53  C         17.9910   13.5860   29.5410 C.2   240  ALA240      0.2287
     54  O         18.3250   13.8000   30.7080 O.2   240  ALA240     -0.2864
     55  CB        18.9250   11.6270   28.2580 C.3   240  ALA240      0.0319
     56  N         23.5950   15.4770   23.1300 N.3   271  ASP271     -0.1239
     57  CA        22.8050   15.9890   24.2360 C.3   271  ASP271      0.1674
     58  C         23.6510   16.1480   25.4870 C.2   271  ASP271      0.2266
     59  O         24.7940   15.6950   25.5420 O.2   271  ASP271     -0.2867
     60  CB        21.6060   15.0630   24.5310 C.3   271  ASP271      0.1410
     61  CG        22.0200   13.6990   25.0790 C.2   271  ASP271      0.3668
     62  OD1       22.6810   13.6460   26.1390 O.co2 271  ASP271     -0.2456
     63  OD2       21.6590   12.6730   24.4580 O.co2 271  ASP271     -0.2456
     64  N         22.4110   15.0920   28.4770 N.3   273  GLY273     -0.1225
     65  CA        21.4970   14.3650   29.3400 C.3   273  GLY273      0.1811
     66  C         22.1380   13.4910   30.4030 C.2   273  GLY273      0.2280
     67  O         21.5010   12.5660   30.9180 O.2   273  GLY273     -0.2866
     68  N         24.5710   11.3120   30.1050 N.3   275  GLY275     -0.1210
     69  CA        25.2560   10.1340   29.5980 C.3   275  GLY275      0.1956
     70  C         24.9810    8.8320   30.3280 C.2   275  GLY275      0.2611
     71  O         24.0380    8.7260   31.1110 O.2   275  GLY275     -0.2717
     72  N         25.7900    7.8140   30.0420 N.am  276  VAL276     -0.1979
     73  CA        25.6350    6.5270   30.7020 C.3   276  VAL276      0.1595
     74  C         27.0200    5.9250   30.9220 C.2   276  VAL276      0.2287
     75  O         27.9350    6.1600   30.1410 O.2   276  VAL276     -0.2864
     76  CB        24.7980    5.5220   29.8580 C.3   276  VAL276      0.0276
     77  CG1       23.4870    6.1840   29.3680 C.3   276  VAL276      0.0022
     78  CG2       25.6120    5.0180   28.6860 C.3   276  VAL276      0.0022
     79  N         22.7520   -0.9670   26.0420 N.3   284  LEU284     -0.1245
     80  CA        21.7150   -0.0830   25.5130 C.3   284  LEU284      0.1561
     81  C         21.0530   -0.6240   24.2490 C.2   284  LEU284      0.2260
     82  O         19.8780   -0.3700   24.0100 O.2   284  LEU284     -0.2867
     83  CB        22.2800    1.3170   25.2150 C.3   284  LEU284      0.0270
     84  CG        22.8150    2.2010   26.3470 C.3   284  LEU284      0.0019
     85  CD1       22.7130    3.6490   25.9160 C.3   284  LEU284      0.0001
     86  CD2       22.0040    2.0040   27.6170 C.3   284  LEU284      0.0001
     87  N         16.6040   -4.0200   27.2280 N.3   289  TYR289     -0.1227
     88  CA        17.1710   -3.0340   28.1390 C.3   289  TYR289      0.1736
     89  C         16.4610   -1.6980   28.0300 C.2   289  TYR289      0.2596
     90  O         16.4540   -1.0800   26.9660 O.2   289  TYR289     -0.2718
     91  CB        18.6580   -2.8060   27.8780 C.3   289  TYR289      0.0548
     92  CG        19.2510   -1.8010   28.8430 C.ar  289  TYR289     -0.0200
     93  CD1       19.7040   -2.1990   30.1050 C.ar  289  TYR289     -0.0009
     94  CD2       19.2850   -0.4430   28.5310 C.ar  289  TYR289     -0.0009
     95  CE1       20.1730   -1.2660   31.0360 C.ar  289  TYR289      0.0417
     96  CE2       19.7510    0.5050   29.4580 C.ar  289  TYR289      0.0417
     97  CZ        20.1890    0.0830   30.7050 C.ar  289  TYR289      0.1957
     98  OH        20.6280    1.0130   31.6190 O.3   289  TYR289     -0.2866
     99  N         15.8790   -1.2440   29.1350 N.am  290  SER290     -0.1938
    100  CA        15.1890    0.0400   29.1540 C.3   290  SER290      0.2055
    101  C         15.1140    0.5790   30.5760 C.2   290  SER290      0.2644
    102  O         14.9240   -0.1940   31.5080 O.2   290  SER290     -0.2714
    103  CB        13.7670   -0.1070   28.6020 C.3   290  SER290      0.2130
    104  OG        13.0790    1.1360   28.6460 O.3   290  SER290     -0.2179
    105  N         15.2950    1.8900   30.7440 N.am  291  THR291     -0.1936
    106  CA        15.1870    2.5100   32.0670 C.3   291  THR291      0.2028
    107  C         13.8700    3.2950   32.1400 C.2   291  THR291      0.2642
    108  O         13.5890    3.9820   33.1300 O.2   291  THR291     -0.2714
    109  CB        16.3620    3.4760   32.3690 C.3   291  THR291      0.1808
    110  OG1       16.3590    4.5510   31.4220 O.3   291  THR291     -0.2208
    111  CG2       17.6830    2.7380   32.3260 C.3   291  THR291      0.0379
    112  N         13.0640    3.1750   31.0880 N.am  292  ALA292     -0.1977
    113  CA        11.7740    3.8530   31.0130 C.3   292  ALA292      0.1597
    114  C         10.8130    3.2330   32.0230 C.2   292  ALA292      0.2287
    115  O         10.8570    2.0330   32.2680 O.2   292  ALA292     -0.2864
    116  CB        11.2090    3.7290   29.6170 C.3   292  ALA292      0.0319
    117  N          7.2410    9.1890   27.2060 N.3   294  LEU294     -0.1231
    118  CA         8.0350    9.4500   26.0110 C.3   294  LEU294      0.1693
    119  C          8.8610    8.2210   25.6300 C.2   294  LEU294      0.2592
    120  O          9.2660    8.0740   24.4730 O.2   294  LEU294     -0.2718
    121  CB         8.9610   10.6520   26.2460 C.3   294  LEU294      0.0284
    122  CG         9.8690   11.1260   25.1060 C.3   294  LEU294      0.0019
    123  CD1        9.0320   11.5820   23.9180 C.3   294  LEU294      0.0001
    124  CD2       10.7380   12.2650   25.6060 C.3   294  LEU294      0.0001
    125  N          9.0960    7.3370   26.6010 N.am  295  ALA295     -0.1966
    126  CA         9.8760    6.1220   26.3710 C.3   295  ALA295      0.1728
    127  C          9.0210    4.8460   26.3820 C.2   295  ALA295      0.2617
    128  O          7.8020    4.9070   26.5760 O.2   295  ALA295     -0.2715
    129  CB        10.9790    6.0220   27.4080 C.3   295  ALA295      0.0334
    130  N          9.6610    3.6910   26.1790 N.am  296  GLY296     -0.1940
    131  CA         8.9320    2.4290   26.1580 C.3   296  GLY296      0.2014
    132  C          9.7060    1.1500   26.4610 C.2   296  GLY296      0.2639
    133  O         10.6200    1.1420   27.2840 O.2   296  GLY296     -0.2714
    134  N          9.3340    0.0680   25.7720 N.am  297  PHE297     -0.1959
    135  CA         9.9260   -1.2690   25.9440 C.3   297  PHE297      0.1771
    136  C         11.3940   -1.5210   25.5710 C.2   297  PHE297      0.2620
    137  O         11.8760   -2.6410   25.7410 O.2   297  PHE297     -0.2715
    138  CB         9.0690   -2.3100   25.2020 C.3   297  PHE297      0.0574
    139  CG         7.8230   -2.7350   25.9420 C.ar  297  PHE297     -0.0200
    140  CD1        6.8990   -3.5800   25.3290 C.ar  297  PHE297     -0.0042
    141  CD2        7.5810   -2.3150   27.2490 C.ar  297  PHE297     -0.0042
    142  CE1        5.7510   -4.0020   26.0070 C.ar  297  PHE297     -0.0003
    143  CE2        6.4370   -2.7300   27.9370 C.ar  297  PHE297     -0.0003
    144  CZ         5.5200   -3.5760   27.3140 C.ar  297  PHE297     -0.0000
    145  N         12.1030   -0.5220   25.0450 N.am  298  GLY298     -0.1940
    146  CA        13.5090   -0.7350   24.6960 C.3   298  GLY298      0.2014
    147  C         13.8370   -1.0460   23.2390 C.2   298  GLY298      0.2639
    148  O         14.8320   -1.7120   22.9360 O.2   298  GLY298     -0.2714
    149  N         13.0190   -0.5510   22.3210 N.am  299  TYR299     -0.1959
    150  CA        13.2430   -0.8150   20.9060 C.3   299  TYR299      0.1771
    151  C         13.9400    0.2810   20.1100 C.2   299  TYR299      0.2620
    152  O         14.5160    0.0170   19.0550 O.2   299  TYR299     -0.2715
    153  CB        11.9070   -1.1880   20.2560 C.3   299  TYR299      0.0574
    154  CG        11.5800   -2.6430   20.5040 C.ar  299  TYR299     -0.0198
    155  CD1       11.5430   -3.1550   21.8040 C.ar  299  TYR299     -0.0009
    156  CD2       11.4360   -3.5360   19.4430 C.ar  299  TYR299     -0.0009
    157  CE1       11.3860   -4.5220   22.0430 C.ar  299  TYR299      0.0417
    158  CE2       11.2790   -4.9050   19.6710 C.ar  299  TYR299      0.0417
    159  CZ        11.2630   -5.3890   20.9720 C.ar  299  TYR299      0.1957
    160  OH        11.1810   -6.7470   21.1960 O.3   299  TYR299     -0.2866
    161  N         13.9190    1.5030   20.6280 N.am  300  GLY300     -0.1940
    162  CA        14.5180    2.6170   19.9150 C.3   300  GLY300      0.2014
    163  C         15.9030    2.4440   19.3090 C.2   300  GLY300      0.2639
    164  O         16.1030    2.6530   18.1010 O.2   300  GLY300     -0.2714
    165  N         16.8720    2.0710   20.1330 N.am  301  LEU301     -0.1963
    166  CA        18.2240    1.9250   19.6350 C.3   301  LEU301      0.1713
    167  C         18.4260    0.7370   18.7160 C.2   301  LEU301      0.2458
    168  O         18.8980    0.9030   17.6000 O.2   301  LEU301     -0.2730
    169  CB        19.2140    1.8710   20.8010 C.3   301  LEU301      0.0310
    170  CG        19.4560    3.2430   21.4430 C.3   301  LEU301      0.0022
    171  CD1       20.2750    3.0640   22.7300 C.3   301  LEU301      0.0001
    172  CD2       20.1850    4.1440   20.4720 C.3   301  LEU301      0.0001
    173  N         18.0610   -0.4730   19.1620 N.am  302  PRO302     -0.2727
    174  CA        18.2810   -1.5960   18.2490 C.3   302  PRO302      0.1402
    175  C         17.5370   -1.4970   16.9180 C.2   302  PRO302      0.2269
    176  O         18.1120   -1.7950   15.8730 O.2   302  PRO302     -0.2865
    177  CB        17.8900   -2.8170   19.0900 C.3   302  PRO302      0.0296
    178  CG        16.8940   -2.2630   20.0860 C.3   302  PRO302      0.0237
    179  CD        17.4730   -0.9210   20.4410 C.3   302  PRO302      0.0939
    180  N         26.9010    4.9350   19.2490 N.3   317  LEU317     -0.1245
    181  CA        26.6190    5.7970   20.3790 C.3   317  LEU317      0.1561
    182  C         27.8770    5.8770   21.2510 C.2   317  LEU317      0.2260
    183  O         28.5130    4.8580   21.5160 O.2   317  LEU317     -0.2867
    184  CB        25.4750    5.2010   21.2050 C.3   317  LEU317      0.0270
    185  CG        24.3940    6.0740   21.8510 C.3   317  LEU317      0.0019
    186  CD1       23.4810    6.6100   20.7760 C.3   317  LEU317      0.0001
    187  CD2       23.5770    5.2560   22.8270 C.3   317  LEU317      0.0001
    188  N         25.6040   12.5780   25.8020 N.3   325  THR325     -0.1218
    189  CA        25.7930   11.5140   24.8190 C.3   325  THR325      0.1862
    190  C         25.7200   11.9680   23.3650 C.2   325  THR325      0.2287
    191  O         24.9440   12.8620   23.0190 O.2   325  THR325     -0.2866
    192  CB        24.7130   10.4250   25.0200 C.3   325  THR325      0.1770
    193  OG1       24.7160    9.9960   26.3830 O.3   325  THR325     -0.2211
    194  CG2       24.9430    9.2230   24.0980 C.3   325  THR325      0.0375
@<TRIPOS>BOND
     1   176   175    2
     2    16    15    1
     3   175   174    1
     4     1     2    1
     5     6     5    1
     6     6     7    1
     7    15    14    1
     8    15    17    1
     9   168   167    2
    10     5     2    1
    11     9     7   ar
    12    14    11    1
    13   164   163    2
    14     2     3    1
    15    10    11    1
    16    10     3   am
    17     7     8   ar
    18   174   177    1
    19   174   173    1
    20   167   173   am
    21   167   166    1
    22    11    12    1
    23     3     4    2
    24   152   151    2
    25   177   178    1
    26   173   179    1
    27   180   181    1
    28   163   162    1
    29   163   165   am
    30   156   158   ar
    31   156   154   ar
    32    12    13    2
    33   166   165    1
    34   166   169    1
    35   158   159   ar
    36   162   161    1
    37   178   179    1
    38   151   161   am
    39   151   150    1
    40    26    25    1
    41    25    24    1
    42   153   154    1
    43   153   150    1
    44   181   184    1
    45   181   182    1
    46   172   170    1
    47   154   155   ar
    48   186   185    1
    49    18    19    1
    50   169   170    1
    51   150   149    1
    52    24    23    1
    53   159   160    1
    54   159   157   ar
    55    23    22    1
    56   184   185    1
    57   182   183    2
    58   170   171    1
    59    22    19    1
    60   155   157   ar
    61   185   187    1
    62    19    20    1
    63    34    32   am
    64   149   147   am
    65    39    36    1
    66    27    20   am
    67    27    28    1
    68   148   147    2
    69    32    31    1
    70    32    33    2
    71   191   190    2
    72    56    57    1
    73    20    21    2
    74    31    28    1
    75   147   146    1
    76   190   189    1
    77    35    36    1
    78    35    29   am
    79    28    29    1
    80   123   122    1
    81    36    37    1
    82    82    81    2
    83   194   192    1
    84    57    60    1
    85    57    58    1
    86    81    80    1
    87    29    30    2
    88    63    61   ar
    89   120   119    2
    90    60    61    1
    91   146   145    1
    92    37    38    2
    93   189   192    1
    94   189   188    1
    95   192   193    1
    96   145   136   am
    97    61    62   ar
    98   122   124    1
    99   122   121    1
   100   138   139    1
   101   138   135    1
   102    83    80    1
   103    83    84    1
   104   140   139   ar
   105   140   142   ar
   106    58    59    2
   107    80    79    1
   108   136   137    2
   109   136   135    1
   110   119   118    1
   111   119   125   am
   112   134   135    1
   113   134   132   am
   114    85    84    1
   115   139   141   ar
   116   142   144   ar
   117   118   121    1
   118   118   117    1
   119   131   130    1
   120   131   132    1
   121   130   127   am
   122    84    86    1
   123   126   127    1
   124   126   125    1
   125   126   129    1
   126   127   128    2
   127   132   133    2
   128    40    41    1
   129    90    89    2
   130    87    88    1
   131   141   143   ar
   132   144   143   ar
   133    44    41    1
   134    44    45    1
   135    41    42    1
   136    91    88    1
   137    91    92    1
   138    89    88    1
   139    89    99   am
   140    51    42   am
   141    51    52    1
   142    55    52    1
   143    64    65    1
   144    94    92   ar
   145    94    96   ar
   146   103   104    1
   147   103   100    1
   148    78    76    1
   149    42    43    2
   150    92    93   ar
   151    46    45    1
   152    46    47    1
   153    52    53    1
   154    99   100    1
   155   100   101    1
   156    65    66    1
   157    77    76    1
   158    96    97   ar
   159    53    54    2
   160    69    68    1
   161    69    70    1
   162   116   113    1
   163    49    48    1
   164    76    73    1
   165    72    70   am
   166    72    73    1
   167    93    95   ar
   168    75    74    2
   169    70    71    2
   170    47    48    2
   171    66    67    2
   172   101   105   am
   173   101   102    2
   174    73    74    1
   175    97    95   ar
   176    97    98    1
   177    48    50    1
   178   105   106    1
   179   113   112    1
   180   113   114    1
   181   112   107   am
   182   110   109    1
   183   114   115    2
   184   106   107    1
   185   106   109    1
   186   107   108    2
   187   111   109    1
