@<TRIPOS>MOLECULE
tmp/2e0nB00.pdb
 161 159 0 0 0
SMALL
GASTEIGER

@<TRIPOS>ATOM
      1  N         33.3330   22.1180   25.0950 N.3     9  PRO9       -0.2116
      2  CA        34.0930   23.3210   25.4900 C.3     9  PRO9        0.1372
      3  C         35.3300   23.7130   24.6820 C.2     9  PRO9        0.2244
      4  O         35.8940   24.8200   24.8970 O.2     9  PRO9       -0.2868
      5  CB        34.4270   23.0380   26.9610 C.3     9  PRO9        0.0268
      6  CG        34.4390   21.5900   27.0540 C.3     9  PRO9        0.0207
      7  CD        33.6530   20.9610   25.9620 C.3     9  PRO9        0.0892
      8  N         29.5340   27.3260   22.6980 N.3    97  VAL97      -0.1231
      9  CA        30.7220   26.7470   23.2710 C.3    97  VAL97       0.1692
     10  C         30.2700   26.1250   24.5980 C.2    97  VAL97       0.2593
     11  O         29.5130   26.7390   25.3480 O.2    97  VAL97      -0.2718
     12  CB        31.7990   27.8430   23.4790 C.3    97  VAL97       0.0266
     13  CG1       32.9300   27.3710   24.3840 C.3    97  VAL97       0.0020
     14  CG2       32.3200   28.3340   22.1290 C.3    97  VAL97       0.0020
     15  N         30.7580   24.9230   24.9130 N.am   98  GLY98      -0.1942
     16  CA        30.3560   24.2930   26.1570 C.3    98  GLY98       0.2014
     17  C         28.9390   23.7810   25.9920 C.2    98  GLY98       0.2638
     18  O         28.6440   23.0870   25.0260 O.2    98  GLY98      -0.2714
     19  N         28.0930   24.0880   26.9710 N.am   99  ASP99      -0.1971
     20  CA        26.6610   23.7850   26.9430 C.3    99  ASP99       0.1709
     21  C         25.8020   25.0300   26.5930 C.2    99  ASP99       0.2293
     22  O         26.0120   26.1120   27.1470 O.2    99  ASP99      -0.2864
     23  CB        26.1880   23.2450   28.3070 C.3    99  ASP99       0.1436
     24  CG        24.6640   22.9020   28.2720 C.2    99  ASP99       0.3671
     25  OD1       24.3120   22.0020   27.4970 O.co2  99  ASP99      -0.2456
     26  OD2       23.8570   23.5380   28.9890 O.co2  99  ASP99      -0.2456
     27  N         23.9680   26.9490   29.5430 N.3   102  PHE102     -0.1227
     28  CA        24.7910   27.2590   30.7120 C.3   102  PHE102      0.1736
     29  C         25.5470   28.5130   30.4330 C.2   102  PHE102      0.2595
     30  O         26.6610   28.4500   29.8940 O.2   102  PHE102     -0.2718
     31  CB        25.7520   26.0710   31.0330 C.3   102  PHE102      0.0547
     32  CG        26.2670   26.0430   32.4810 C.ar  102  PHE102     -0.0202
     33  CD1       25.3970   25.7660   33.5380 C.ar  102  PHE102     -0.0042
     34  CD2       27.6340   26.2170   32.7580 C.ar  102  PHE102     -0.0042
     35  CE1       25.8500   25.7080   34.8360 C.ar  102  PHE102     -0.0003
     36  CE2       28.1130   26.2030   34.0800 C.ar  102  PHE102     -0.0003
     37  CZ        27.2320   25.9740   35.1190 C.ar  102  PHE102     -0.0000
     38  N         24.9430   29.6680   30.8030 N.am  103  TYR103     -0.1962
     39  CA        25.5060   30.9930   30.5310 C.3   103  TYR103      0.1771
     40  C         25.7360   31.2270   29.0180 C.2   103  TYR103      0.2620
     41  O         26.7180   31.8530   28.6160 O.2   103  TYR103     -0.2715
     42  CB        26.7990   31.2360   31.3130 C.3   103  TYR103      0.0574
     43  CG        26.7090   31.1060   32.8240 C.ar  103  TYR103     -0.0198
     44  CD1       26.3400   32.2000   33.6160 C.ar  103  TYR103     -0.0009
     45  CD2       27.0230   29.8840   33.4610 C.ar  103  TYR103     -0.0009
     46  CE1       26.2950   32.0950   35.0250 C.ar  103  TYR103      0.0417
     47  CE2       26.9860   29.7520   34.8670 C.ar  103  TYR103      0.0417
     48  CZ        26.6270   30.8520   35.6350 C.ar  103  TYR103      0.1957
     49  OH        26.6090   30.7320   36.9930 O.3   103  TYR103     -0.2866
     50  N         24.8230   30.7090   28.1980 N.am  104  SER104     -0.1950
     51  CA        24.8980   30.8710   26.7550 C.3   104  SER104      0.1924
     52  C         23.9300   31.9240   26.2700 C.2   104  SER104      0.2314
     53  O         22.8070   32.0230   26.7550 O.2   104  SER104     -0.2863
     54  CB        24.6180   29.5430   26.0420 C.3   104  SER104      0.2116
     55  OG        24.5300   29.7270   24.6350 O.3   104  SER104     -0.2180
     56  N         29.9490   21.4190   29.9310 N.3   127  PRO127     -0.2102
     57  CA        30.4250   22.7350   30.3970 C.3   127  PRO127      0.1504
     58  C         31.9320   22.7850   30.5080 C.2   127  PRO127      0.2576
     59  O         32.5440   21.7770   30.8470 O.2   127  PRO127     -0.2718
     60  CB        29.8890   22.8410   31.8500 C.3   127  PRO127      0.0282
     61  CG        28.6180   21.8900   31.8490 C.3   127  PRO127      0.0208
     62  CD        29.1280   20.7200   30.9450 C.3   127  PRO127      0.0893
     63  N         32.5260   23.9690   30.2630 N.am  128  ALA128     -0.1966
     64  CA        33.9820   24.1030   30.4610 C.3   128  ALA128      0.1728
     65  C         34.4710   23.6920   31.8290 C.2   128  ALA128      0.2616
     66  O         35.5590   23.1250   31.9470 O.2   128  ALA128     -0.2715
     67  CB        34.4220   25.5650   30.1870 C.3   128  ALA128      0.0334
     68  N         33.7390   24.0330   32.8840 N.am  129  PHE129     -0.1974
     69  CA        34.2790   23.7280   34.2000 C.3   129  PHE129      0.1639
     70  C         34.3740   22.2270   34.4230 C.2   129  PHE129      0.2290
     71  O         35.2640   21.7670   35.1460 O.2   129  PHE129     -0.2864
     72  CB        33.4590   24.4090   35.3310 C.3   129  PHE129      0.0560
     73  CG        32.2010   23.6890   35.7220 C.ar  129  PHE129     -0.0200
     74  CD1       32.2130   22.7920   36.8220 C.ar  129  PHE129     -0.0042
     75  CD2       30.9860   23.9280   35.0470 C.ar  129  PHE129     -0.0042
     76  CE1       31.0120   22.1250   37.2220 C.ar  129  PHE129     -0.0003
     77  CE2       29.7840   23.2770   35.4450 C.ar  129  PHE129     -0.0003
     78  CZ        29.7930   22.3870   36.5130 C.ar  129  PHE129     -0.0000
     79  N         33.5840   31.7080   36.6250 N.3   172  MET172     -0.1230
     80  CA        33.7020   31.9400   35.2290 C.3   172  MET172      0.1702
     81  C         33.7050   33.4910   35.0400 C.2   172  MET172      0.2589
     82  O         33.5220   34.1350   36.1220 O.2   172  MET172     -0.2718
     83  CB        32.5950   31.2600   34.4670 C.3   172  MET172      0.0401
     84  CG        32.6610   29.7230   34.5680 C.3   172  MET172      0.0596
     85  SD        31.1360   28.8590   34.2620 S.3   172  MET172     -0.1393
     86  CE        30.6470   29.4010   32.6470 C.3   172  MET172      0.0692
     87  N         33.8090   34.0440   33.9360 N.am  173  LYS173     -0.2033
     88  CA        34.4150   34.6580   32.8520 C.3   173  LYS173      0.1282
     89  C         35.7920   35.3230   33.0930 C.3   173  LYS173      0.2036
     90  O         36.7050   34.8170   32.3680 O.3   173  LYS173     -0.2185
     91  CB        33.4790   35.6180   32.1090 C.3   173  LYS173      0.0244
     92  CG        32.2050   35.0170   31.5620 C.3   173  LYS173      0.0034
     93  CD        31.0970   36.0080   31.3250 C.3   173  LYS173      0.0206
     94  CE        29.8050   35.2640   30.9600 C.3   173  LYS173      0.1093
     95  NZ        28.6390   36.1620   30.8140 N.3   173  LYS173     -0.1314
     96  N         42.2020   27.3720   34.7530 N.3   195  ALA195     -0.1245
     97  CA        42.0780   26.6450   33.4820 C.3   195  ALA195      0.1562
     98  C         41.6590   27.5620   32.3360 C.2   195  ALA195      0.2260
     99  O         40.5910   28.1780   32.3640 O.2   195  ALA195     -0.2867
    100  CB        41.1160   25.5150   33.6220 C.3   195  ALA195      0.0290
    101  N         41.3690   28.1330   28.0720 N.3   197  LYS197     -0.1231
    102  CA        41.2700   27.5190   26.7340 C.3   197  LYS197      0.1693
    103  C         41.3240   25.9700   26.7810 C.2   197  LYS197      0.2591
    104  O         41.9870   25.3220   25.9860 O.2   197  LYS197     -0.2718
    105  CB        42.2830   28.1450   25.7540 C.3   197  LYS197      0.0285
    106  CG        42.0800   29.7210   25.6220 C.3   197  LYS197      0.0035
    107  CD        43.1590   30.4610   24.8480 C.3   197  LYS197      0.0206
    108  CE        43.0800   32.0630   25.0420 C.3   197  LYS197      0.1093
    109  NZ        41.6250   32.6400   25.2300 N.3   197  LYS197     -0.1314
    110  N         40.6190   25.4000   27.7510 N.am  198  VAL198     -0.1980
    111  CA        40.5570   23.9430   27.9270 C.3   198  VAL198      0.1595
    112  C         40.1490   23.1860   26.6540 C.2   198  VAL198      0.2287
    113  O         39.0860   23.4600   26.0600 O.2   198  VAL198     -0.2864
    114  CB        39.6200   23.5590   29.1070 C.3   198  VAL198      0.0276
    115  CG1       39.6520   22.0490   29.2790 C.3   198  VAL198      0.0022
    116  CG2       40.0980   24.2690   30.3980 C.3   198  VAL198      0.0022
    117  N         41.4220   23.4810   23.7630 N.3   200  MET200     -0.1245
    118  CA        41.7320   24.2710   22.5620 C.3   200  MET200      0.1570
    119  C         43.2370   24.3590   22.3690 C.2   200  MET200      0.2261
    120  O         43.9930   23.9960   23.2670 O.2   200  MET200     -0.2867
    121  CB        41.1700   25.6960   22.6870 C.3   200  MET200      0.0387
    122  CG        39.7290   25.7610   23.1540 C.3   200  MET200      0.0595
    123  SD        39.2990   27.5130   23.4200 S.3   200  MET200     -0.1393
    124  CE        37.4890   27.3600   23.5630 C.3   200  MET200      0.0692
    125  N         39.1390   35.9720   28.3970 N.3   219  TYR219     -0.1227
    126  CA        37.7100   35.6380   28.5270 C.3   219  TYR219      0.1736
    127  C         37.5150   34.1230   28.7290 C.2   219  TYR219      0.2595
    128  O         36.7580   33.6770   29.5970 O.2   219  TYR219     -0.2718
    129  CB        36.8970   36.1490   27.3030 C.3   219  TYR219      0.0548
    130  CG        35.3800   35.8840   27.4480 C.ar  219  TYR219     -0.0200
    131  CD1       34.5970   36.6460   28.3400 C.ar  219  TYR219     -0.0009
    132  CD2       34.7600   34.8700   26.7430 C.ar  219  TYR219     -0.0009
    133  CE1       33.2330   36.3980   28.4990 C.ar  219  TYR219      0.0417
    134  CE2       33.3660   34.6180   26.8870 C.ar  219  TYR219      0.0417
    135  CZ        32.6250   35.4050   27.7710 C.ar  219  TYR219      0.1957
    136  OH        31.2700   35.1620   27.9760 O.3   219  TYR219     -0.2866
    137  N         38.2130   33.3320   27.9180 N.am  220  PHE220     -0.1962
    138  CA        38.0660   31.8790   27.9990 C.3   220  PHE220      0.1771
    139  C         38.9330   31.2180   29.0870 C.2   220  PHE220      0.2620
    140  O         39.7710   30.4270   28.7870 O.2   220  PHE220     -0.2715
    141  CB        38.1730   31.2450   26.5980 C.3   220  PHE220      0.0574
    142  CG        36.9290   31.4660   25.7840 C.ar  220  PHE220     -0.0200
    143  CD1       36.9480   32.3150   24.6740 C.ar  220  PHE220     -0.0042
    144  CD2       35.7060   30.9440   26.2150 C.ar  220  PHE220     -0.0042
    145  CE1       35.7360   32.5740   23.9410 C.ar  220  PHE220     -0.0003
    146  CE2       34.4930   31.1860   25.4880 C.ar  220  PHE220     -0.0003
    147  CZ        34.5200   31.9880   24.3560 C.ar  220  PHE220     -0.0000
    148  N         38.6730   31.5940   30.3450 N.am  221  SER221     -0.1936
    149  CA        39.3720   31.0480   31.5170 C.3   221  SER221      0.2055
    150  C         38.4170   30.9690   32.6900 C.2   221  SER221      0.2642
    151  O         37.4610   31.7500   32.8010 O.2   221  SER221     -0.2714
    152  CB        40.6050   31.8910   31.9290 C.3   221  SER221      0.2130
    153  OG        40.2950   33.2200   32.3460 O.3   221  SER221     -0.2179
    154  N         38.7310   30.0870   33.6170 N.am  222  LEU222     -0.1977
    155  CA        37.8780   29.8950   34.7830 C.3   222  LEU222      0.1596
    156  C         38.7810   29.4510   35.9180 C.2   222  LEU222      0.2287
    157  O         39.9310   29.0260   35.7060 O.2   222  LEU222     -0.2864
    158  CB        36.7590   28.8710   34.4710 C.3   222  LEU222      0.0297
    159  CG        37.0460   27.4280   33.9910 C.3   222  LEU222      0.0022
    160  CD1       37.4860   26.5560   35.1870 C.3   222  LEU222      0.0001
    161  CD2       35.8180   26.7710   33.2980 C.3   222  LEU222      0.0001
@<TRIPOS>BOND
     1    14    12    1
     2   119   118    1
     3   119   120    2
     4   118   121    1
     5   118   117    1
     6   121   122    1
     7     8     9    1
     8   122   123    1
     9     9    12    1
    10     9    10    1
    11   123   124    1
    12    12    13    1
    13   145   147   ar
    14   145   143   ar
    15   147   146   ar
    16    10    15   am
    17    10    11    2
    18    55    54    1
    19   143   142   ar
    20     3     4    2
    21     3     2    1
    22   107   108    1
    23   107   106    1
    24    15    16    1
    25    18    17    2
    26   108   109    1
    27     1     2    1
    28     1     7    1
    29   146   144   ar
    30     2     5    1
    31   106   105    1
    32   105   102    1
    33   142   144   ar
    34   142   141    1
    35     7     6    1
    36   104   103    2
    37    17    16    1
    38    17    19   am
    39    54    51    1
    40   113   112    2
    41    52    53    2
    42    52    51    1
    43    21    20    1
    44    21    22    2
    45   141   138    1
    46   112   111    1
    47   102   103    1
    48   102   101    1
    49   132   134   ar
    50   132   130   ar
    51    51    50    1
    52   103   110   am
    53   134   135   ar
    54    20    19    1
    55    20    23    1
    56     5     6    1
    57   129   130    1
    58   129   126    1
    59   130   131   ar
    60    25    24   ar
    61   110   111    1
    62   135   136    1
    63   135   133   ar
    64   137   138    1
    65   137   127   am
    66   111   114    1
    67   138   139    1
    68    50    40   am
    69    24    23    1
    70    24    26   ar
    71   131   133   ar
    72   125   126    1
    73   126   127    1
    74    41    40    2
    75   127   128    2
    76   140   139    2
    77    40    39    1
    78   139   148   am
    79   114   115    1
    80   114   116    1
    81    27    28    1
    82    30    29    2
    83    56    57    1
    84    56    62    1
    85    67    64    1
    86    63    64    1
    87    63    58   am
    88   148   149    1
    89    57    58    1
    90    57    60    1
    91    29    28    1
    92    29    38   am
    93    64    65    1
    94    58    59    2
    95    39    38    1
    96    39    42    1
    97    28    31    1
    98    95    94    1
    99    62    61    1
   100    94    93    1
   101    31    32    1
   102    42    43    1
   103    93    92    1
   104   149   152    1
   105   149   150    1
   106    92    91    1
   107    65    66    2
   108    65    68   am
   109    61    60    1
   110   152   153    1
   111    91    88    1
   112    98    99    2
   113    98    97    1
   114    90    89    1
   115    32    34   ar
   116    32    33   ar
   117    86    85    1
   118   150   151    2
   119   150   154   am
   120    34    36   ar
   121    43    45   ar
   122    43    44   ar
   123    88    89    1
   124    88    87    1
   125    68    69    1
   126   161   159    1
   127    45    47   ar
   128    97   100    1
   129    97    96    1
   130    33    35   ar
   131    44    46   ar
   132   154   155    1
   133    87    81   am
   134   159   158    1
   135   159   160    1
   136    36    37   ar
   137    69    70    1
   138    69    72    1
   139    85    84    1
   140    70    71    2
   141    83    84    1
   142    83    80    1
   143   158   155    1
   144   155   156    1
   145    35    37   ar
   146    47    48   ar
   147    46    48   ar
   148    81    80    1
   149    81    82    2
   150    75    77   ar
   151    75    73   ar
   152    80    79    1
   153    72    73    1
   154    77    78   ar
   155    48    49    1
   156   157   156    2
   157    73    74   ar
   158    78    76   ar
   159    74    76   ar
