@<TRIPOS>MOLECULE
tmp/2e0pA00.pdb
 157 153 0 0 0
SMALL
GASTEIGER

@<TRIPOS>ATOM
      1  N         14.4870   36.2840    9.8240 N.3    38  GLY38      -0.1210
      2  CA        13.0980   35.8710    9.7840 C.3    38  GLY38       0.1956
      3  C         12.2120   36.8430    9.0440 C.2    38  GLY38       0.2612
      4  O         12.6970   37.7320    8.3560 O.2    38  GLY38      -0.2717
      5  N         10.9010   36.6740    9.1900 N.am   39  GLY39      -0.1942
      6  CA         9.9910   37.5520    8.4930 C.3    39  GLY39       0.2014
      7  C          9.4810   36.9370    7.2060 C.2    39  GLY39       0.2639
      8  O          9.8780   35.8330    6.8160 O.2    39  GLY39      -0.2714
      9  N          8.6220   37.6790    6.5210 N.am   40  ASN40      -0.1958
     10  CA         7.9850   37.1830    5.3110 C.3    40  ASN40       0.1819
     11  C          8.8790   36.5560    4.2580 C.2    40  ASN40       0.2621
     12  O          8.5460   35.5020    3.7190 O.2    40  ASN40      -0.2715
     13  CB         7.1450   38.2990    4.6740 C.3    40  ASN40       0.1195
     14  CG         5.9550   38.6890    5.5360 C.2    40  ASN40       0.2630
     15  OD1        5.6250   37.9950    6.5000 O.2    40  ASN40      -0.2716
     16  ND2        5.3000   39.7950    5.1880 N.am   40  ASN40      -0.0877
     17  N         10.0140   37.1830    3.9750 N.am   41  ARG41      -0.1977
     18  CA        10.9090   36.6720    2.9450 C.3    41  ARG41       0.1597
     19  C         11.5420   35.3170    3.2370 C.2    41  ARG41       0.2287
     20  O         12.0100   34.6490    2.3140 O.2    41  ARG41      -0.2864
     21  CB        12.0250   37.6870    2.6640 C.3    41  ARG41       0.0334
     22  CG        11.6710   38.7130    1.5920 C.3    41  ARG41       0.0492
     23  CD        11.7520   38.0970    0.2010 C.3    41  ARG41       0.2205
     24  NE        11.5520   39.1100   -0.8390 N.pl3  41  ARG41      -0.0865
     25  CZ        11.8390   38.9270   -2.1250 C.cat  41  ARG41       0.5346
     26  NH1       12.3390   37.7690   -2.5430 N.pl3  41  ARG41       0.1354
     27  NH2       11.6280   39.9050   -2.9940 N.pl3  41  ARG41       0.1354
     28  N          8.7790   37.1430   -2.4730 N.3    54  ALA54      -0.1245
     29  CA         8.2220   38.2680   -1.7250 C.3    54  ALA54       0.1562
     30  C          6.7910   38.0420   -1.2660 C.2    54  ALA54       0.2260
     31  O          6.3200   38.7060   -0.3450 O.2    54  ALA54      -0.2867
     32  CB         8.2730   39.5330   -2.5820 C.3    54  ALA54       0.0290
     33  N          3.9400   40.8750   -0.4400 N.3    57  ASP57      -0.1225
     34  CA         4.6870   42.1140   -0.2040 C.3    57  ASP57       0.1805
     35  C          5.1520   42.7090   -1.5260 C.2    57  ASP57       0.2597
     36  O          5.3550   43.9230   -1.6220 O.2    57  ASP57      -0.2718
     37  CB         5.9000   41.8990    0.7080 C.3    57  ASP57       0.1424
     38  CG         5.5170   41.7230    2.1620 C.2    57  ASP57       0.3668
     39  OD1        4.4780   42.2790    2.5870 O.co2  57  ASP57      -0.2456
     40  OD2        6.2740   41.0490    2.8890 O.co2  57  ASP57      -0.2456
     41  N          5.3590   41.8610   -2.5340 N.am   58  TRP58      -0.1976
     42  CA         5.7490   42.3550   -3.8460 C.3    58  TRP58       0.1640
     43  C          5.4700   41.4470   -5.0390 C.2    58  TRP58       0.2290
     44  O          6.3730   40.8180   -5.5930 O.2    58  TRP58      -0.2864
     45  CB         7.2150   42.7930   -3.8900 C.3    58  TRP58       0.0576
     46  CG         7.4540   43.6730   -5.0970 C.ar   58  TRP58       0.0006
     47  CD1        7.8810   43.2770   -6.3370 C.ar   58  TRP58       0.0946
     48  CD2        7.1330   45.0690   -5.2140 C.ar   58  TRP58       0.0152
     49  NE1        7.8380   44.3370   -7.2160 N.ar   58  TRP58      -0.2442
     50  CE2        7.3830   45.4470   -6.5540 C.ar   58  TRP58       0.0810
     51  CE3        6.6530   46.0350   -4.3170 C.ar   58  TRP58       0.0012
     52  CZ2        7.1700   46.7520   -7.0200 C.ar   58  TRP58       0.0191
     53  CZ3        6.4400   47.3340   -4.7810 C.ar   58  TRP58       0.0001
     54  CH2        6.6990   47.6770   -6.1220 C.ar   58  TRP58       0.0015
     55  N          7.0310   37.8770   -6.3430 N.3    61  TYR61      -0.1241
     56  CA         8.2760   37.7860   -7.0970 C.3    61  TYR61       0.1605
     57  C          9.2780   36.8190   -6.4810 C.2    61  TYR61       0.2264
     58  O          9.5280   36.8700   -5.2760 O.2    61  TYR61      -0.2867
     59  CB         8.9700   39.1480   -7.1370 C.3    61  TYR61       0.0534
     60  CG         8.7010   39.9980   -8.3540 C.ar   61  TYR61      -0.0201
     61  CD1        7.4030   40.2580   -8.7760 C.ar   61  TYR61      -0.0009
     62  CD2        9.7530   40.6130   -9.0350 C.ar   61  TYR61      -0.0009
     63  CE1        7.1520   41.1190   -9.8430 C.ar   61  TYR61       0.0417
     64  CE2        9.5140   41.4760  -10.1000 C.ar   61  TYR61       0.0417
     65  CZ         8.2120   41.7260  -10.4960 C.ar   61  TYR61       0.1957
     66  OH         7.9710   42.6090  -11.5260 O.3    61  TYR61      -0.2866
     67  N         13.1150   36.0500   -6.5220 N.3    63  ASP63      -0.1239
     68  CA        14.3140   36.7420   -6.9770 C.3    63  ASP63       0.1674
     69  C         15.4590   36.6470   -5.9820 C.2    63  ASP63       0.2266
     70  O         15.4290   35.8330   -5.0580 O.2    63  ASP63      -0.2867
     71  CB        13.9910   38.2120   -7.2290 C.3    63  ASP63       0.1410
     72  CG        13.3930   38.8860   -6.0060 C.2    63  ASP63       0.3668
     73  OD1       13.8070   38.5400   -4.8750 O.co2  63  ASP63      -0.2456
     74  OD2       12.5210   39.7660   -6.1750 O.co2  63  ASP63      -0.2456
     75  N         16.4320   39.0400   -3.8740 N.3    65  TYR65      -0.1241
     76  CA        16.3080   40.0480   -2.8230 C.3    65  TYR65       0.1605
     77  C         17.1340   39.7990   -1.5640 C.2    65  TYR65       0.2264
     78  O         17.8590   40.6860   -1.1250 O.2    65  TYR65      -0.2867
     79  CB        14.8450   40.2350   -2.4110 C.3    65  TYR65       0.0534
     80  CG        14.6680   41.2290   -1.2750 C.ar   65  TYR65      -0.0201
     81  CD1       14.7010   42.6020   -1.5120 C.ar   65  TYR65      -0.0009
     82  CD2       14.4780   40.7920    0.0360 C.ar   65  TYR65      -0.0009
     83  CE1       14.5450   43.5190   -0.4670 C.ar   65  TYR65       0.0417
     84  CE2       14.3210   41.6940    1.0880 C.ar   65  TYR65       0.0417
     85  CZ        14.3530   43.0580    0.8310 C.ar   65  TYR65       0.1957
     86  OH        14.1830   43.9580    1.8650 O.3    65  TYR65      -0.2866
     87  N          7.5300   31.3520    9.6790 N.3   179  ASN179     -0.1225
     88  CA         7.0990   32.6830   10.1000 C.3   179  ASN179      0.1785
     89  C          5.5980   32.8730    9.9100 C.2   179  ASN179      0.2597
     90  O          5.0660   32.5710    8.8470 O.2   179  ASN179     -0.2718
     91  CB         7.8380   33.7140    9.2280 C.3   179  ASN179      0.1169
     92  CG         7.4630   35.1550    9.5480 C.2   179  ASN179      0.2627
     93  OD1        6.7680   35.8480    8.7700 O.2   179  ASN179     -0.2716
     94  ND2        7.9240   35.6240   10.6860 N.am  179  ASN179     -0.0877
     95  N          4.9230   33.3650   10.9470 N.am  180  GLU180     -0.1979
     96  CA         3.4930   33.6810   10.8650 C.3   180  GLU180      0.1602
     97  C          2.6500   32.7060   10.0540 C.2   180  GLU180      0.2287
     98  O          2.0430   33.0690    9.0390 O.2   180  GLU180     -0.2864
     99  CB         3.3480   35.1070   10.3170 C.3   180  GLU180      0.0415
    100  CG         4.1090   36.1110   11.1970 C.3   180  GLU180      0.1163
    101  CD         3.8790   37.5720   10.8400 C.2   180  GLU180      0.3649
    102  OE1        3.3640   37.8750    9.7370 O.co2 180  GLU180     -0.2457
    103  OE2        4.2330   38.4330   11.6830 O.co2 180  GLU180     -0.2457
    104  N         -0.7810   33.4350    8.7550 N.3   183  LEU183     -0.1245
    105  CA        -0.8440   34.3700    7.6380 C.3   183  LEU183      0.1561
    106  C         -0.2520   33.7710    6.3530 C.2   183  LEU183      0.2260
    107  O         -0.1220   34.4710    5.3600 O.2   183  LEU183     -0.2867
    108  CB        -0.1320   35.7000    7.9600 C.3   183  LEU183      0.0270
    109  CG        -0.7860   36.5530    9.0520 C.3   183  LEU183      0.0019
    110  CD1       -0.1230   37.9290    9.1010 C.3   183  LEU183      0.0001
    111  CD2       -2.2760   36.6970    8.7520 C.3   183  LEU183      0.0001
    112  N          2.9700   43.5210   17.8440 N.3   279  TYR279     -0.1241
    113  CA         2.9600   44.9020   17.3640 C.3   279  TYR279      0.1605
    114  C          1.7840   45.4970   18.1160 C.2   279  TYR279      0.2264
    115  O          0.6400   45.1090   17.8930 O.2   279  TYR279     -0.2867
    116  CB         2.7230   44.9390   15.8580 C.3   279  TYR279      0.0534
    117  CG         3.9340   44.4870   15.0780 C.ar  279  TYR279     -0.0201
    118  CD1        5.0170   45.3450   14.8960 C.ar  279  TYR279     -0.0009
    119  CD2        3.9950   43.2130   14.5170 C.ar  279  TYR279     -0.0009
    120  CE1        6.1340   44.9500   14.1660 C.ar  279  TYR279      0.0417
    121  CE2        5.1160   42.8040   13.7750 C.ar  279  TYR279      0.0417
    122  CZ         6.1740   43.6830   13.6050 C.ar  279  TYR279      0.1957
    123  OH         7.2650   43.3290   12.8340 O.3   279  TYR279     -0.2866
    124  N          3.0300   51.7620   12.7950 N.3   291  PHE291     -0.1241
    125  CA         2.5370   51.6840   11.4140 C.3   291  PHE291      0.1605
    126  C          1.8950   52.9810   10.9300 C.2   291  PHE291      0.2264
    127  O          0.6740   53.1400   10.9820 O.2   291  PHE291     -0.2867
    128  CB         1.5250   50.5410   11.2470 C.3   291  PHE291      0.0534
    129  CG         2.0290   49.2040   11.7170 C.ar  291  PHE291     -0.0203
    130  CD1        3.3880   48.8990   11.6860 C.ar  291  PHE291     -0.0042
    131  CD2        1.1390   48.2390   12.1700 C.ar  291  PHE291     -0.0042
    132  CE1        3.8490   47.6530   12.1000 C.ar  291  PHE291     -0.0003
    133  CE2        1.5890   46.9880   12.5850 C.ar  291  PHE291     -0.0003
    134  CZ         2.9470   46.6960   12.5500 C.ar  291  PHE291     -0.0000
    135  N          9.3310   39.7340   17.0020 N.3   353  GLU353     -0.1245
    136  CA         9.0630   40.9360   16.2070 C.3   353  GLU353      0.1567
    137  C          8.1980   41.8420   17.0750 C.2   353  GLU353      0.2260
    138  O          7.2730   41.3690   17.7400 O.2   353  GLU353     -0.2867
    139  CB         8.3070   40.6440   14.9020 C.3   353  GLU353      0.0388
    140  CG         9.1740   40.0720   13.7830 C.3   353  GLU353      0.1160
    141  CD         8.4000   39.8900   12.4910 C.2   353  GLU353      0.3649
    142  OE1        7.4800   40.6970   12.2410 O.co2 353  GLU353     -0.2457
    143  OE2        8.7200   38.9540   11.7210 O.co2 353  GLU353     -0.2457
    144  N         11.7270   44.8000   15.1680 N.3   386  TRP386     -0.1241
    145  CA        11.5730   44.8070   13.7150 C.3   386  TRP386      0.1605
    146  C         11.4850   46.2680   13.2820 C.2   386  TRP386      0.2264
    147  O         10.5280   46.9790   13.6200 O.2   386  TRP386     -0.2867
    148  CB        10.3140   44.0610   13.2580 C.3   386  TRP386      0.0550
    149  CG        10.2040   44.0090   11.7450 C.ar  386  TRP386      0.0003
    150  CD1        9.7240   44.9840   10.9150 C.ar  386  TRP386      0.0946
    151  CD2       10.6770   42.9560   10.8970 C.ar  386  TRP386      0.0152
    152  NE1        9.8730   44.6000    9.5940 N.ar  386  TRP386     -0.2442
    153  CE2       10.4580   43.3600    9.5600 C.ar  386  TRP386      0.0810
    154  CE3       11.2660   41.7040   11.1400 C.ar  386  TRP386      0.0012
    155  CZ2       10.8120   42.5550    8.4640 C.ar  386  TRP386      0.0191
    156  CZ3       11.6150   40.9040   10.0550 C.ar  386  TRP386      0.0001
    157  CH2       11.3870   41.3350    8.7320 C.ar  386  TRP386      0.0015
@<TRIPOS>BOND
     1    66    65    1
     2    65    64   ar
     3    65    63   ar
     4    64    62   ar
     5    63    61   ar
     6    62    60   ar
     7    61    60   ar
     8    60    59    1
     9    71    68    1
    10    71    72    1
    11    49    50   ar
    12    49    47   ar
    13    59    56    1
    14    56    57    1
    15    56    55    1
    16    52    50   ar
    17    52    54   ar
    18    68    67    1
    19    68    69    1
    20    50    48   ar
    21    57    58    2
    22    47    46   ar
    23    74    72   ar
    24    54    53   ar
    25    72    73   ar
    26    69    70    2
    27    44    43    2
    28    48    46   ar
    29    48    51   ar
    30    46    45    1
    31    43    42    1
    32    53    51   ar
    33    45    42    1
    34    75    76    1
    35    42    41    1
    36    27    25    1
    37    76    79    1
    38    76    77    1
    39    32    29    1
    40    26    25    1
    41    41    35   am
    42    28    29    1
    43    79    80    1
    44    25    24    2
    45    29    30    1
    46    36    35    2
    47    77    78    2
    48    35    34    1
    49    81    80   ar
    50    81    83   ar
    51    80    82   ar
    52    30    31    2
    53    24    23    1
    54    83    85   ar
    55    33    34    1
    56    34    37    1
    57    82    84   ar
    58    23    22    1
    59    37    38    1
    60    85    84   ar
    61    85    86    1
    62    22    21    1
    63    38    39   ar
    64    38    40   ar
    65    20    19    2
    66    21    18    1
    67    18    19    1
    68    18    17    1
    69    12    11    2
    70    17    11   am
    71    11    10    1
    72    13    10    1
    73    13    14    1
    74    16    14   am
    75    10     9    1
    76   107   106    2
    77    14    15    2
    78   106   105    1
    79     9     7   am
    80     8     7    2
    81     7     6    1
    82   105   108    1
    83   105   104    1
    84   108   109    1
    85     4     3    2
    86   155   157   ar
    87   155   153   ar
    88     6     5    1
    89   157   156   ar
    90   111   109    1
    91    93    92    2
    92    90    89    2
    93    98    97    2
    94     3     5   am
    95     3     2    1
    96   109   110    1
    97    91    92    1
    98    91    88    1
    99    92    94   am
   100   153   152   ar
   101   153   151   ar
   102   152   150   ar
   103    87    88    1
   104   102   101   ar
   105     2     1    1
   106    89    88    1
   107    89    95   am
   108    97    96    1
   109   156   154   ar
   110    99    96    1
   111    99   100    1
   112   101   100    1
   113   101   103   ar
   114    96    95    1
   115   151   154   ar
   116   151   149   ar
   117   150   149   ar
   118   126   127    2
   119   126   125    1
   120   128   125    1
   121   128   129    1
   122   125   124    1
   123   130   129   ar
   124   130   132   ar
   125   129   131   ar
   126   143   141   ar
   127   149   148    1
   128   132   134   ar
   129   131   133   ar
   130   142   141   ar
   131   141   140    1
   132   134   133   ar
   133   123   122    1
   134   148   145    1
   135   146   147    2
   136   146   145    1
   137   122   121   ar
   138   122   120   ar
   139   145   144    1
   140   121   119   ar
   141   140   139    1
   142   120   118   ar
   143   119   117   ar
   144   118   117   ar
   145   139   136    1
   146   117   116    1
   147   116   113    1
   148   136   135    1
   149   136   137    1
   150   137   138    2
   151   113   112    1
   152   113   114    1
   153   115   114    2
