@<TRIPOS>MOLECULE
tmp/2e0sA03.pdb
 79 78 0 0 0
SMALL
GASTEIGER

@<TRIPOS>ATOM
      1  N         23.7060   19.0720    9.1930 N.3    87  ARG87      -0.1231
      2  CA        22.4240   18.9280    8.5060 C.3    87  ARG87       0.1679
      3  C         21.3420   18.3220    9.4080 C.2    87  ARG87       0.2434
      4  O         21.5950   17.3730   10.1460 O.2    87  ARG87      -0.2733
      5  CB        22.6150   18.0510    7.2650 C.3    87  ARG87       0.0321
      6  CG        21.3620   17.8920    6.4000 C.3    87  ARG87       0.0489
      7  CD        21.3630   16.5600    5.6630 C.3    87  ARG87       0.2205
      8  NE        22.5780   16.4040    4.8760 N.pl3  87  ARG87      -0.0865
      9  CZ        23.1930   15.2470    4.6570 C.cat  87  ARG87       0.5346
     10  NH1       22.7080   14.1180    5.1620 N.pl3  87  ARG87       0.1354
     11  NH2       24.3030   15.2260    3.9310 N.pl3  87  ARG87       0.1354
     12  N         20.1300   18.8930    9.3680 N.am   88  PRO88      -0.2718
     13  CA        19.0120   18.3880   10.1630 C.3    88  PRO88       0.1535
     14  C         18.7160   16.9360    9.7820 C.2    88  PRO88       0.2599
     15  O         18.8810   16.5700    8.6160 O.2    88  PRO88      -0.2715
     16  CB        17.8450   19.2810    9.7370 C.3    88  PRO88       0.0310
     17  CG        18.4900   20.5370    9.1970 C.3    88  PRO88       0.0237
     18  CD        19.7690   20.0770    8.5620 C.3    88  PRO88       0.0939
     19  N         18.2910   16.1290   10.7550 N.am   89  THR89      -0.1951
     20  CA        17.9130   14.7480   10.5050 C.3    89  THR89       0.1897
     21  C         16.4720   14.6880    9.9680 C.2    89  THR89       0.2313
     22  O         15.6560   15.5650   10.2540 O.2    89  THR89      -0.2863
     23  CB        18.0470   13.8850   11.7930 C.3    89  THR89       0.1794
     24  OG1       17.1970   14.4110   12.8160 O.3    89  THR89      -0.2208
     25  CG2       19.4840   13.8670   12.3040 C.3    89  THR89       0.0378
     26  N         25.3570   13.4400   13.4520 N.3   308  ALA308     -0.1231
     27  CA        25.0440   14.8640   13.2880 C.3   308  ALA308      0.1694
     28  C         24.8520   15.5540   14.6480 C.2   308  ALA308      0.2592
     29  O         24.3430   14.9370   15.5960 O.2   308  ALA308     -0.2718
     30  CB        23.7760   15.0250   12.4320 C.3   308  ALA308      0.0304
     31  N         25.2710   16.8160   14.7500 N.am  309  LYS309     -0.1966
     32  CA        25.0850   17.5930   15.9870 C.3   309  LYS309      0.1728
     33  C         23.6090   17.8820   16.0620 C.2   309  LYS309      0.2616
     34  O         22.9620   17.9470   15.0290 O.2   309  LYS309     -0.2715
     35  CB        25.8610   18.9150   15.9310 C.3   309  LYS309      0.0311
     36  CG        27.3930   18.7550   15.9730 C.3   309  LYS309      0.0038
     37  CD        28.0600   20.1170   15.7940 C.3   309  LYS309      0.0206
     38  CE        29.5600   19.9580   15.5490 C.3   309  LYS309      0.1093
     39  NZ        30.2800   21.2260   15.8660 N.3   309  LYS309     -0.1314
     40  N         23.0620   18.0600   17.2560 N.am  310  LEU310     -0.1963
     41  CA        21.6140   18.1930   17.3670 C.3   310  LEU310      0.1728
     42  C         21.1010   19.6210   17.2120 C.2   310  LEU310      0.2616
     43  O         20.3080   19.9100   16.3210 O.2   310  LEU310     -0.2715
     44  CB        21.0860   17.5010   18.6350 C.3   310  LEU310      0.0311
     45  CG        21.2480   15.9780   18.5300 C.3   310  LEU310      0.0022
     46  CD1       20.6960   15.2740   19.7450 C.3   310  LEU310      0.0001
     47  CD2       20.5020   15.5000   17.2920 C.3   310  LEU310      0.0001
     48  N         21.4890   20.5370   18.0780 N.am  311  GLY311     -0.1955
     49  CA        21.0910   21.9180   17.7810 C.3   311  GLY311      0.1869
     50  C         19.6720   22.1990   18.2280 C.2   311  GLY311      0.2309
     51  O         18.7220   21.4810   17.8870 O.2   311  GLY311     -0.2863
     52  N         18.5260   19.7190   22.3410 N.3   314  PRO314     -0.2116
     53  CA        17.2280   19.1890   22.7670 C.3   314  PRO314      0.1372
     54  C         17.2990   18.2740   23.9930 C.2   314  PRO314      0.2244
     55  O         18.2940   17.5970   24.1970 O.2   314  PRO314     -0.2868
     56  CB        16.7630   18.3820   21.5440 C.3   314  PRO314      0.0268
     57  CG        17.9870   17.9640   20.8770 C.3   314  PRO314      0.0207
     58  CD        18.9830   19.0880   21.0870 C.3   314  PRO314      0.0892
     59  N         11.9880   16.6850   23.5300 N.3   318  GLU318     -0.1231
     60  CA        12.1010   17.4780   22.3290 C.3   318  GLU318      0.1699
     61  C         12.6890   16.6770   21.1660 C.2   318  GLU318      0.2592
     62  O         12.2340   16.8300   20.0460 O.2   318  GLU318     -0.2718
     63  CB        12.9300   18.7370   22.5720 C.3   318  GLU318      0.0402
     64  CG        12.3250   19.7420   23.5530 C.3   318  GLU318      0.1161
     65  CD        13.2940   20.8570   23.8310 C.2   318  GLU318      0.3649
     66  OE1       14.4670   20.5230   24.1060 O.co2 318  GLU318     -0.2457
     67  OE2       12.9120   22.0520   23.7440 O.co2 318  GLU318     -0.2457
     68  N         13.7110   15.8610   21.4170 N.am  319  TYR319     -0.1976
     69  CA        14.3120   15.0490   20.3630 C.3   319  TYR319      0.1639
     70  C         13.3370   14.0480   19.7570 C.2   319  TYR319      0.2290
     71  O         13.2650   13.8890   18.5290 O.2   319  TYR319     -0.2864
     72  CB        15.5670   14.2990   20.8440 C.3   319  TYR319      0.0560
     73  CG        16.1370   13.4940   19.7250 C.ar  319  TYR319     -0.0198
     74  CD1       16.8320   14.1200   18.6990 C.ar  319  TYR319     -0.0009
     75  CD2       15.9070   12.1240   19.6330 C.ar  319  TYR319     -0.0009
     76  CE1       17.3330   13.4100   17.6440 C.ar  319  TYR319      0.0417
     77  CE2       16.3770   11.4150   18.5660 C.ar  319  TYR319      0.0417
     78  CZ        17.0880   12.0480   17.5820 C.ar  319  TYR319      0.1957
     79  OH        17.5580   11.3360   16.5050 O.3   319  TYR319     -0.2866
@<TRIPOS>BOND
     1    11     9    1
     2     9     8    2
     3     9    10    1
     4     8     7    1
     5     7     6    1
     6     6     5    1
     7     5     2    1
     8     2     1    1
     9     2     3    1
    10    18    17    1
    11    18    12    1
    12    15    14    2
    13    17    16    1
    14    12     3   am
    15    12    13    1
    16     3     4    2
    17    16    13    1
    18    14    13    1
    19    14    19   am
    20    21    22    2
    21    21    20    1
    22    20    19    1
    23    20    23    1
    24    23    25    1
    25    23    24    1
    26    30    27    1
    27    27    26    1
    28    27    28    1
    29    28    31   am
    30    28    29    2
    31    31    32    1
    32    34    33    2
    33    38    37    1
    34    38    39    1
    35    37    36    1
    36    35    36    1
    37    35    32    1
    38    32    33    1
    39    33    40   am
    40    43    42    2
    41    79    78    1
    42    42    41    1
    43    42    48   am
    44    40    41    1
    45    47    45    1
    46    41    44    1
    47    78    76   ar
    48    78    77   ar
    49    76    74   ar
    50    49    48    1
    51    49    50    1
    52    51    50    2
    53    71    70    2
    54    45    44    1
    55    45    46    1
    56    77    75   ar
    57    74    73   ar
    58    75    73   ar
    59    73    72    1
    60    70    69    1
    61    62    61    2
    62    69    72    1
    63    69    68    1
    64    57    58    1
    65    57    56    1
    66    58    52    1
    67    61    68   am
    68    61    60    1
    69    56    53    1
    70    60    63    1
    71    60    59    1
    72    52    53    1
    73    63    64    1
    74    53    54    1
    75    64    65    1
    76    67    65   ar
    77    65    66   ar
    78    54    55    2
