@<TRIPOS>MOLECULE
tmp/2e1mA00.pdb
 191 186 0 0 0
SMALL
GASTEIGER

@<TRIPOS>ATOM
      1  N         14.9310   61.8600   96.1560 N.3    47  VAL47      -0.1231
      2  CA        14.4940   62.4330   94.8890 C.3    47  VAL47       0.1692
      3  C         14.1730   61.3460   93.8810 C.2    47  VAL47       0.2593
      4  O         14.9860   60.4590   93.6170 O.2    47  VAL47      -0.2718
      5  CB        15.5410   63.3470   94.2360 C.3    47  VAL47       0.0266
      6  CG1       14.9140   64.0120   93.0070 C.3    47  VAL47       0.0020
      7  CG2       16.0410   64.3940   95.2250 C.3    47  VAL47       0.0020
      8  N         12.9680   61.4200   93.3310 N.am   48  GLY48      -0.1942
      9  CA        12.5610   60.4510   92.3390 C.3    48  GLY48       0.2014
     10  C         11.6980   59.3610   92.9120 C.2    48  GLY48       0.2639
     11  O         12.1230   58.6360   93.8170 O.2    48  GLY48      -0.2714
     12  N         10.4840   59.2590   92.3750 N.am   49  ALA49      -0.1963
     13  CA         9.5180   58.2530   92.7930 C.3    49  ALA49       0.1728
     14  C          9.5040   57.1160   91.7810 C.2    49  ALA49       0.2617
     15  O          8.4420   56.6030   91.4150 O.2    49  ALA49      -0.2715
     16  CB         8.1150   58.8720   92.9210 C.3    49  ALA49       0.0334
     17  N         10.6920   56.7530   91.3080 N.am   50  GLY50      -0.1940
     18  CA        10.8090   55.6450   90.3800 C.3    50  GLY50       0.2014
     19  C         10.8870   54.4050   91.2490 C.2    50  GLY50       0.2639
     20  O         10.7710   54.5280   92.4620 O.2    50  GLY50      -0.2714
     21  N         11.0820   53.2190   90.6840 N.am   51  ILE51      -0.1963
     22  CA        11.1530   52.0420   91.5450 C.3    51  ILE51       0.1727
     23  C         12.2250   52.1760   92.6330 C.2    51  ILE51       0.2616
     24  O         11.9890   51.8290   93.7800 O.2    51  ILE51      -0.2715
     25  CB        11.4410   50.7690   90.7550 C.3    51  ILE51       0.0290
     26  CG1       11.2960   49.5560   91.6720 C.3    51  ILE51       0.0022
     27  CG2       12.8380   50.8130   90.2080 C.3    51  ILE51       0.0023
     28  CD1        9.9640   49.4760   92.3450 C.3    51  ILE51       0.0001
     29  N         13.3960   52.6870   92.2780 N.am   52  ALA52      -0.1963
     30  CA        14.4610   52.8520   93.2570 C.3    52  ALA52       0.1728
     31  C         13.9840   53.6780   94.4490 C.2    52  ALA52       0.2616
     32  O         14.1110   53.2580   95.5960 O.2    52  ALA52      -0.2715
     33  CB        15.6920   53.5300   92.6140 C.3    52  ALA52       0.0334
     34  N         13.4420   54.8560   94.1640 N.am   53  GLY53      -0.1955
     35  CA        12.9820   55.7290   95.2260 C.3    53  GLY53       0.1869
     36  C         11.8910   55.1210   96.0820 C.2    53  GLY53       0.2309
     37  O         11.9870   55.1150   97.3070 O.2    53  GLY53      -0.2863
     38  N         10.4930   63.4240   96.6940 N.3    70  LEU70      -0.1231
     39  CA        10.2030   64.4530   95.6830 C.3    70  LEU70       0.1693
     40  C         10.1510   63.8690   94.2540 C.2    70  LEU70       0.2592
     41  O         11.1480   63.3110   93.7640 O.2    70  LEU70      -0.2718
     42  CB        11.2670   65.5530   95.7570 C.3    70  LEU70       0.0284
     43  CG        11.3090   66.4300   97.0110 C.3    70  LEU70       0.0019
     44  CD1       12.6250   67.1680   97.0880 C.3    70  LEU70       0.0001
     45  CD2       10.1490   67.4100   96.9860 C.3    70  LEU70       0.0001
     46  N          9.0010   64.0070   93.5910 N.am   71  GLU71      -0.1966
     47  CA         8.8000   63.4720   92.2360 C.3    71  GLU71       0.1733
     48  C          8.3810   64.5020   91.1680 C.2    71  GLU71       0.2616
     49  O          7.2990   65.0820   91.2320 O.2    71  GLU71      -0.2715
     50  CB         7.7670   62.3460   92.2940 C.3    71  GLU71       0.0429
     51  CG         7.2380   61.9450   90.9470 C.3    71  GLU71       0.1163
     52  CD         8.3380   61.5070   89.9930 C.2    71  GLU71       0.3649
     53  OE1        8.2430   61.8750   88.8000 O.co2  71  GLU71      -0.2457
     54  OE2        9.2800   60.8030   90.4300 O.co2  71  GLU71      -0.2457
     55  N          9.2300   64.7080   90.1690 N.am   72  ALA72      -0.1963
     56  CA         8.9410   65.6890   89.1230 C.3    72  ALA72       0.1728
     57  C          7.6510   65.4440   88.3580 C.2    72  ALA72       0.2616
     58  O          6.9500   66.3910   87.9930 O.2    72  ALA72      -0.2715
     59  CB        10.1070   65.7740   88.1440 C.3    72  ALA72       0.0334
     60  N          7.3350   64.1810   88.1040 N.am   73  ASN73      -0.1972
     61  CA         6.1200   63.8870   87.3680 C.3    73  ASN73       0.1688
     62  C          4.9440   64.3680   88.2030 C.2    73  ASN73       0.2292
     63  O          4.9820   64.2880   89.4260 O.2    73  ASN73      -0.2864
     64  CB         6.0020   62.3900   87.0990 C.3    73  ASN73       0.1181
     65  CG         4.9600   62.0740   86.0360 C.2    73  ASN73       0.2629
     66  OD1        3.8090   62.5060   86.1300 O.2    73  ASN73      -0.2716
     67  ND2        5.3640   61.3170   85.0180 N.am   73  ASN73      -0.0877
     68  N          2.2990   60.6300   87.6460 N.3    76  ARG76      -0.1245
     69  CA         2.7290   59.2510   87.6480 C.3    76  ARG76       0.1563
     70  C          4.0150   58.9670   88.3970 C.2    76  ARG76       0.2260
     71  O          4.9610   59.7570   88.3560 O.2    76  ARG76      -0.2867
     72  CB         2.8690   58.7670   86.1960 C.3    76  ARG76       0.0307
     73  CG         2.4900   57.3120   86.0000 C.3    76  ARG76       0.0489
     74  CD         2.9270   56.7750   84.6530 C.3    76  ARG76       0.2205
     75  NE         4.3480   56.4500   84.6160 N.pl3  76  ARG76      -0.0865
     76  CZ         5.2460   57.1550   83.9430 C.cat  76  ARG76       0.5346
     77  NH1        4.8560   58.2170   83.2600 N.pl3  76  ARG76       0.1354
     78  NH2        6.5220   56.7970   83.9430 N.pl3  76  ARG76       0.1354
     79  N          6.7110   55.5060   89.2870 N.3    78  GLY78      -0.1210
     80  CA         7.0710   54.3060   88.5580 C.3    78  GLY78       0.1956
     81  C          8.2040   54.5570   87.5810 C.2    78  GLY78       0.2612
     82  O          8.9260   53.6320   87.2200 O.2    78  GLY78      -0.2717
     83  N          8.3610   55.8070   87.1540 N.am   79  GLY79      -0.1942
     84  CA         9.4240   56.1550   86.2260 C.3    79  GLY79       0.2014
     85  C          9.4240   55.3620   84.9360 C.2    79  GLY79       0.2639
     86  O          8.4400   55.3410   84.2090 O.2    79  GLY79      -0.2714
     87  N         10.5390   54.7040   84.6530 N.am   80  ARG80      -0.1963
     88  CA        10.6530   53.9070   83.4490 C.3    80  ARG80       0.1729
     89  C          9.8150   52.6300   83.5070 C.2    80  ARG80       0.2616
     90  O         10.0630   51.6720   82.7720 O.2    80  ARG80      -0.2715
     91  CB        12.1220   53.5880   83.1830 C.3    80  ARG80       0.0348
     92  CG        12.8680   54.7520   82.5350 C.3    80  ARG80       0.0492
     93  CD        14.3500   54.5100   82.5580 C.3    80  ARG80       0.2205
     94  NE        14.9970   55.0050   83.7730 N.pl3  80  ARG80      -0.0865
     95  CZ        16.2290   54.6720   84.1570 C.cat  80  ARG80       0.5346
     96  NH1       16.9510   53.8300   83.4260 N.pl3  80  ARG80       0.1354
     97  NH2       16.7520   55.2020   85.2610 N.pl3  80  ARG80       0.1354
     98  N          8.8350   52.6210   84.4070 N.am   81  ILE81      -0.1977
     99  CA         7.9000   51.5070   84.5480 C.3    81  ILE81       0.1596
    100  C          6.5540   52.1760   84.3550 C.2    81  ILE81       0.2287
    101  O          5.9140   52.6150   85.3100 O.2    81  ILE81      -0.2864
    102  CB         7.9100   50.8530   85.9550 C.3    81  ILE81       0.0276
    103  CG1        9.2740   50.2560   86.2600 C.3    81  ILE81       0.0022
    104  CG2        6.8970   49.7080   86.0110 C.3    81  ILE81       0.0022
    105  CD1        9.2760   49.4310   87.5200 C.3    81  ILE81       0.0001
    106  N          4.9780   50.5140   78.1860 N.3   103  ALA103     -0.1231
    107  CA         5.6990   51.5780   77.5100 C.3   103  ALA103      0.1694
    108  C          7.1820   51.4540   77.9270 C.2   103  ALA103      0.2593
    109  O          8.0730   52.0400   77.3040 O.2   103  ALA103     -0.2718
    110  CB         5.1310   52.9400   77.9180 C.3   103  ALA103      0.0304
    111  N          7.4260   50.6740   78.9830 N.am  104  GLY104     -0.1942
    112  CA         8.7760   50.4650   79.4910 C.3   104  GLY104      0.2014
    113  C          9.0380   49.0200   79.8890 C.2   104  GLY104      0.2639
    114  O          8.9140   48.1310   79.0510 O.2   104  GLY104     -0.2714
    115  N          9.3990   48.7710   81.1500 N.am  105  ALA105     -0.1963
    116  CA         9.6710   47.4020   81.6320 C.3   105  ALA105      0.1728
    117  C          8.5130   46.4420   81.3760 C.2   105  ALA105      0.2616
    118  O          7.3590   46.7930   81.6110 O.2   105  ALA105     -0.2715
    119  CB        10.0010   47.4220   83.1260 C.3   105  ALA105      0.0334
    120  N          8.8120   45.2320   80.9050 N.am  106  MET106     -0.1963
    121  CA         7.7510   44.2590   80.6070 C.3   106  MET106      0.1736
    122  C          8.0010   42.8280   81.0680 C.2   106  MET106      0.2616
    123  O          7.0610   42.0440   81.1570 O.2   106  MET106     -0.2715
    124  CB         7.4410   44.2400   79.0950 C.3   106  MET106      0.0427
    125  CG         8.6610   43.9740   78.1870 C.3   106  MET106      0.0599
    126  SD         8.2750   43.8920   76.4040 S.3   106  MET106     -0.1393
    127  CE         9.4910   42.6830   75.7840 C.3   106  MET106      0.0692
    128  N          9.2490   42.4670   81.3450 N.am  107  ARG107     -0.1963
    129  CA         9.5150   41.1030   81.7890 C.3   107  ARG107      0.1729
    130  C         10.5350   41.0080   82.9170 C.2   107  ARG107      0.2616
    131  O         11.5120   41.7570   82.9590 O.2   107  ARG107     -0.2715
    132  CB         9.9490   40.2310   80.6030 C.3   107  ARG107      0.0348
    133  CG        10.8160   40.9380   79.5760 C.3   107  ARG107      0.0492
    134  CD        11.6260   39.9510   78.7680 C.3   107  ARG107      0.2205
    135  NE        12.8450   40.5830   78.2920 N.pl3 107  ARG107     -0.0865
    136  CZ        13.9460   39.9240   77.9440 C.cat 107  ARG107      0.5346
    137  NH1       13.9660   38.6000   78.0180 N.pl3 107  ARG107      0.1354
    138  NH2       15.0360   40.5890   77.5520 N.pl3 107  ARG107      0.1354
    139  N         10.2940   40.0640   83.8270 N.am  108  LEU108     -0.1964
    140  CA        11.1500   39.8530   84.9900 C.3   108  LEU108      0.1713
    141  C         11.7850   38.4680   85.0250 C.2   108  LEU108      0.2458
    142  O         11.0930   37.4480   85.1020 O.2   108  LEU108     -0.2730
    143  CB        10.3210   40.0640   86.2440 C.3   108  LEU108      0.0310
    144  CG         9.6500   41.4250   86.2030 C.3   108  LEU108      0.0022
    145  CD1        8.3650   41.4100   86.9960 C.3   108  LEU108      0.0001
    146  CD2       10.6420   42.4640   86.7020 C.3   108  LEU108      0.0001
    147  N         13.1210   38.4230   84.9800 N.am  109  PRO109     -0.2727
    148  CA        13.9190   37.1930   85.0010 C.3   109  PRO109      0.1402
    149  C         13.8250   36.4090   86.3190 C.2   109  PRO109      0.2269
    150  O         13.6750   36.9940   87.3940 O.2   109  PRO109     -0.2865
    151  CB        15.3420   37.6940   84.7340 C.3   109  PRO109      0.0296
    152  CG        15.1320   38.9790   84.0000 C.3   109  PRO109      0.0237
    153  CD        13.9790   39.5940   84.7500 C.3   109  PRO109      0.0939
    154  N         16.2960   37.1440   89.1850 N.3   112  HIS112     -0.1241
    155  CA        16.1820   38.4950   89.7220 C.3   112  HIS112      0.1621
    156  C         15.2640   38.3850   90.9500 C.2   112  HIS112      0.2264
    157  O         14.1180   38.8600   90.9520 O.2   112  HIS112     -0.2867
    158  CB        15.6010   39.4540   88.6730 C.3   112  HIS112      0.0745
    159  CG        16.6310   40.0250   87.7440 C.ar  112  HIS112      0.0817
    160  ND1       16.3390   41.0040   86.8170 N.ar  112  HIS112     -0.2268
    161  CD2       17.9560   39.7700   87.6160 C.ar  112  HIS112      0.1154
    162  CE1       17.4390   41.3260   86.1600 C.ar  112  HIS112      0.1986
    163  NE2       18.4340   40.5930   86.6260 N.ar  112  HIS112     -0.2212
    164  N          6.9990   68.0140   91.4810 N.3   335  GLN335     -0.1231
    165  CA         8.0830   68.8300   91.9990 C.3   335  GLN335      0.1698
    166  C          9.4180   68.3930   91.4210 C.2   335  GLN335      0.2592
    167  O          9.9050   67.2920   91.6960 O.2   335  GLN335     -0.2718
    168  CB         8.1140   68.7700   93.5360 C.3   335  GLN335      0.0381
    169  CG         7.0080   69.5810   94.2250 C.3   335  GLN335      0.0905
    170  CD         7.0930   71.0690   93.9170 C.2   335  GLN335      0.2608
    171  OE1        6.1980   71.6400   93.2940 O.2   335  GLN335     -0.2717
    172  NE2        8.1760   71.7020   94.3500 N.am  335  GLN335     -0.0878
    173  N         10.0160   69.2730   90.6260 N.am  336  ARG336     -0.1966
    174  CA        11.2850   68.9690   89.9820 C.3   336  ARG336      0.1729
    175  C         12.5050   69.5620   90.6870 C.2   336  ARG336      0.2616
    176  O         12.6110   70.7760   90.8630 O.2   336  ARG336     -0.2715
    177  CB        11.2460   69.4580   88.5290 C.3   336  ARG336      0.0348
    178  CG        12.4140   68.9820   87.6820 C.3   336  ARG336      0.0492
    179  CD        12.3460   69.5160   86.2570 C.3   336  ARG336      0.2205
    180  NE        13.4040   68.9200   85.4400 N.pl3 336  ARG336     -0.0865
    181  CZ        13.2900   67.7800   84.7480 C.cat 336  ARG336      0.5346
    182  NH1       12.1460   67.0930   84.7460 N.pl3 336  ARG336      0.1354
    183  NH2       14.3400   67.3080   84.0780 N.pl3 336  ARG336      0.1354
    184  N         13.4280   68.7010   91.0980 N.am  337  MET337     -0.1977
    185  CA        14.6330   69.1980   91.7400 C.3   337  MET337      0.1605
    186  C         15.3770   69.9870   90.6700 C.2   337  MET337      0.2287
    187  O         15.5030   69.5260   89.5350 O.2   337  MET337     -0.2864
    188  CB        15.5130   68.0500   92.2520 C.3   337  MET337      0.0413
    189  CG        16.8900   68.5290   92.7010 C.3   337  MET337      0.0598
    190  SD        17.8780   67.3440   93.6810 S.3   337  MET337     -0.1393
    191  CE        18.1570   65.9780   92.4700 C.3   337  MET337      0.0692
@<TRIPOS>BOND
     1   127   126    1
     2   126   125    1
     3   109   108    2
     4   107   110    1
     5   107   108    1
     6   107   106    1
     7   138   136    1
     8   108   111   am
     9   136   137    1
    10   136   135    2
    11   125   124    1
    12   135   134    1
    13   134   133    1
    14   111   112    1
    15   114   113    2
    16   124   121    1
    17   112   113    1
    18   133   132    1
    19   113   115   am
    20   132   129    1
    21   121   120    1
    22   121   122    1
    23   120   117   am
    24   122   123    2
    25   122   128   am
    26   115   116    1
    27   128   129    1
    28   117   118    2
    29   117   116    1
    30   116   119    1
    31   129   130    1
    32    92    93    1
    33    92    91    1
    34    93    94    1
    35    90    89    2
    36   130   131    2
    37   130   139   am
    38    91    88    1
    39    77    76    1
    40    96    95    1
    41    88    89    1
    42    88    87    1
    43    89    98   am
    44    94    95    2
    45   139   140    1
    46    76    78    1
    47    76    75    2
    48   152   151    1
    49   152   153    1
    50   183   181    1
    51    95    97    1
    52    86    85    2
    53   100    99    1
    54   100   101    2
    55    98    99    1
    56    99   102    1
    57    75    74    1
    58    74    73    1
    59    87    85   am
    60   151   148    1
    61   182   181    1
    62   181   180    2
    63   153   147    1
    64    85    84    1
    65   147   148    1
    66   147   141   am
    67   140   141    1
    68   140   143    1
    69   148   149    1
    70    67    65   am
    71   141   142    2
    72   180   179    1
    73   102   104    1
    74   102   103    1
    75    73    72    1
    76    65    66    2
    77    65    64    1
    78   162   163   ar
    79   162   160   ar
    80    72    69    1
    81   144   143    1
    82   144   146    1
    83   144   145    1
    84    84    83    1
    85   179   178    1
    86   103   105    1
    87   149   150    2
    88   163   161   ar
    89   160   159   ar
    90    64    61    1
    91    83    81   am
    92    82    81    2
    93    61    60    1
    94    61    62    1
    95    81    80    1
    96   161   159   ar
    97    68    69    1
    98    69    70    1
    99   178   177    1
   100   159   158    1
   101    58    57    2
   102    60    57   am
   103    59    56    1
   104    62    63    2
   105    71    70    2
   106    57    56    1
   107   177   174    1
   108    80    79    1
   109   158   155    1
   110    53    52   ar
   111    56    55    1
   112   154   155    1
   113   187   186    2
   114   155   156    1
   115   174   173    1
   116   174   175    1
   117    52    54   ar
   118    52    51    1
   119    55    48   am
   120    27    25    1
   121    18    19    1
   122    18    17    1
   123   173   166   am
   124   186   185    1
   125    21    19   am
   126    21    22    1
   127   175   176    2
   128   175   184   am
   129    25    22    1
   130    25    26    1
   131    51    50    1
   132   156   157    2
   133   184   185    1
   134    48    49    2
   135    48    47    1
   136    19    20    2
   137    17    14   am
   138    15    14    2
   139   166   167    2
   140   166   165    1
   141   164   165    1
   142    22    23    1
   143    26    28    1
   144   185   188    1
   145    14    13    1
   146   165   168    1
   147    47    50    1
   148    47    46    1
   149   188   189    1
   150    29    23   am
   151    29    30    1
   152     9    10    1
   153     9     8    1
   154    12    13    1
   155    12    10   am
   156   191   190    1
   157    33    30    1
   158    23    24    2
   159   189   190    1
   160    13    16    1
   161    10    11    2
   162     6     5    1
   163    30    31    1
   164   171   170    2
   165     8     3   am
   166   168   169    1
   167    46    40   am
   168     4     3    2
   169    41    40    2
   170     3     2    1
   171   170   169    1
   172   170   172   am
   173    34    31   am
   174    34    35    1
   175     5     2    1
   176     5     7    1
   177    40    39    1
   178    31    32    2
   179     2     1    1
   180    35    36    1
   181    39    42    1
   182    39    38    1
   183    42    43    1
   184    36    37    2
   185    45    43    1
   186    43    44    1
