@<TRIPOS>MOLECULE
tmp/2e1mC00.pdb
 123 124 0 0 0
SMALL
GASTEIGER

@<TRIPOS>ATOM
      1  N          9.8210   47.9290   68.5780 N.3    40  TYR40      -0.1241
      2  CA        10.5910   48.1600   69.7840 C.3    40  TYR40       0.1605
      3  C         12.0400   47.9780   69.3660 C.2    40  TYR40       0.2264
      4  O         12.4220   46.9290   68.8510 O.2    40  TYR40      -0.2867
      5  CB        10.1950   47.1540   70.8700 C.3    40  TYR40       0.0534
      6  CG        11.1230   47.1080   72.0780 C.ar   40  TYR40      -0.0201
      7  CD1       11.7520   48.2580   72.5540 C.ar   40  TYR40      -0.0009
      8  CD2       11.3620   45.9030   72.7460 C.ar   40  TYR40      -0.0009
      9  CE1       12.5960   48.2050   73.6600 C.ar   40  TYR40       0.0417
     10  CE2       12.1970   45.8350   73.8430 C.ar   40  TYR40       0.0417
     11  CZ        12.8160   46.9820   74.3010 C.ar   40  TYR40       0.1957
     12  OH        13.6690   46.8940   75.3850 O.3    40  TYR40      -0.2866
     13  N         11.7390   57.0730   74.9070 N.3    86  TRP86      -0.1241
     14  CA        12.4010   57.4130   76.1450 C.3    86  TRP86       0.1605
     15  C         13.4240   58.5310   76.0860 C.2    86  TRP86       0.2264
     16  O         13.7460   59.1290   77.1110 O.2    86  TRP86      -0.2867
     17  CB        12.9670   56.1470   76.7790 C.3    86  TRP86       0.0550
     18  CG        11.8340   55.3320   77.2880 C.ar   86  TRP86       0.0003
     19  CD1       11.2300   54.2740   76.6680 C.ar   86  TRP86       0.0946
     20  CD2       11.0800   55.5800   78.4780 C.ar   86  TRP86       0.0152
     21  NE1       10.1450   53.8490   77.4000 N.ar   86  TRP86      -0.2442
     22  CE2       10.0310   54.6360   78.5160 C.ar   86  TRP86       0.0810
     23  CE3       11.1870   56.5110   79.5130 C.ar   86  TRP86       0.0012
     24  CZ2        9.0960   54.5970   79.5500 C.ar   86  TRP86       0.0191
     25  CZ3       10.2540   56.4720   80.5380 C.ar   86  TRP86       0.0001
     26  CH2        9.2220   55.5200   80.5470 C.ar   86  TRP86       0.0015
     27  N         11.3820   63.8540   79.3050 N.3    90  PRO90      -0.2102
     28  CA        12.1520   64.7590   80.1630 C.3    90  PRO90       0.1504
     29  C         12.3850   64.2370   81.5730 C.2    90  PRO90       0.2576
     30  O         12.9900   64.9210   82.3960 O.2    90  PRO90      -0.2718
     31  CB        11.3010   66.0190   80.1580 C.3    90  PRO90       0.0282
     32  CG         9.9310   65.4450   80.1820 C.3    90  PRO90       0.0208
     33  CD        10.0110   64.3610   79.1250 C.3    90  PRO90       0.0893
     34  N         11.9030   63.0310   81.8470 N.am   91  TYR91      -0.1963
     35  CA        12.0390   62.4270   83.1670 C.3    91  TYR91       0.1771
     36  C         12.9430   61.2060   83.1520 C.2    91  TYR91       0.2619
     37  O         13.4830   60.8080   84.1880 O.2    91  TYR91      -0.2715
     38  CB        10.6530   62.0540   83.6830 C.3    91  TYR91       0.0574
     39  CG         9.7740   63.2630   83.8640 C.ar   91  TYR91      -0.0198
     40  CD1        8.4100   63.2100   83.6040 C.ar   91  TYR91      -0.0009
     41  CD2       10.3210   64.4750   84.2790 C.ar   91  TYR91      -0.0009
     42  CE1        7.6200   64.3370   83.7510 C.ar   91  TYR91       0.0417
     43  CE2        9.5420   65.6000   84.4270 C.ar   91  TYR91       0.0417
     44  CZ         8.1990   65.5280   84.1610 C.ar   91  TYR91       0.1957
     45  OH         7.4460   66.6650   84.2910 O.3    91  TYR91      -0.2866
     46  N         13.0960   60.6120   81.9700 N.am   92  ALA92      -0.1977
     47  CA        13.9400   59.4390   81.7950 C.3    92  ALA92       0.1597
     48  C         15.1620   59.8630   81.0190 C.2    92  ALA92       0.2287
     49  O         16.2450   59.3080   81.1870 O.2    92  ALA92      -0.2864
     50  CB        13.1930   58.3680   81.0300 C.3    92  ALA92       0.0319
     51  N         16.5370   55.5890   77.7070 N.3    95  GLU95      -0.1245
     52  CA        16.0020   54.3000   78.1530 C.3    95  GLU95       0.1567
     53  C         16.6550   53.8660   79.4630 C.2    95  GLU95       0.2260
     54  O         15.9770   53.5550   80.4290 O.2    95  GLU95      -0.2867
     55  CB        16.2540   53.2070   77.1060 C.3    95  GLU95       0.0388
     56  CG        15.8790   51.8140   77.5970 C.3    95  GLU95       0.1160
     57  CD        16.8310   50.7190   77.1380 C.2    95  GLU95       0.3649
     58  OE1       16.5830   49.5420   77.5010 O.co2  95  GLU95      -0.2457
     59  OE2       17.8210   51.0260   76.4270 O.co2  95  GLU95      -0.2457
     60  N         19.3770   53.6540   92.0680 N.3   122  GLY122     -0.1210
     61  CA        18.6990   53.5890   90.7900 C.3   122  GLY122      0.1956
     62  C         19.4480   52.7620   89.7600 C.2   122  GLY122      0.2612
     63  O         20.6730   52.6080   89.8300 O.2   122  GLY122     -0.2717
     64  N         18.6840   52.2210   88.8130 N.am  123  GLU123     -0.1965
     65  CA        19.1830   51.3990   87.7110 C.3   123  GLU123      0.1733
     66  C         20.6580   51.6190   87.3500 C.2   123  GLU123      0.2616
     67  O         21.4560   50.6760   87.3020 O.2   123  GLU123     -0.2715
     68  CB        18.2840   51.6520   86.4950 C.3   123  GLU123      0.0429
     69  CG        18.8090   51.1590   85.1700 C.3   123  GLU123      0.1163
     70  CD        19.5400   52.2220   84.3730 C.2   123  GLU123      0.3649
     71  OE1       20.4940   51.8330   83.6850 O.co2 123  GLU123     -0.2457
     72  OE2       19.1760   53.4220   84.4120 O.co2 123  GLU123     -0.2457
     73  N         21.0350   52.8680   87.1300 N.am  124  HIS124     -0.1973
     74  CA        22.4100   53.1630   86.7420 C.3   124  HIS124      0.1656
     75  C         23.5190   53.0150   87.7780 C.2   124  HIS124      0.2291
     76  O         24.6960   52.9260   87.4090 O.2   124  HIS124     -0.2864
     77  CB        22.4870   54.5700   86.2080 C.3   124  HIS124      0.0771
     78  CG        22.0890   55.5970   87.2130 C.ar  124  HIS124      0.0820
     79  ND1       20.8120   55.6670   87.7300 N.ar  124  HIS124     -0.2267
     80  CD2       22.7850   56.6100   87.7780 C.ar  124  HIS124      0.1154
     81  CE1       20.7370   56.6880   88.5630 C.ar  124  HIS124      0.1986
     82  NE2       21.9200   57.2750   88.6090 N.ar  124  HIS124     -0.2212
     83  N         19.3690   48.9020   82.7640 N.3   130  ALA130     -0.1231
     84  CA        18.2020   48.5830   81.9470 C.3   130  ALA130      0.1694
     85  C         17.4410   47.4120   82.5520 C.2   130  ALA130      0.2592
     86  O         16.7910   46.6350   81.8530 O.2   130  ALA130     -0.2718
     87  CB        18.6290   48.2570   80.5170 C.3   130  ALA130      0.0304
     88  N         17.5360   47.3030   83.8700 N.am  131  TRP131     -0.1962
     89  CA        16.8540   46.2600   84.6340 C.3   131  TRP131      0.1771
     90  C         16.3190   46.8590   85.9420 C.2   131  TRP131      0.2619
     91  O         16.9100   47.7810   86.5050 O.2   131  TRP131     -0.2715
     92  CB        17.8260   45.1340   84.9710 C.3   131  TRP131      0.0590
     93  CG        18.1130   44.2210   83.8480 C.ar  131  TRP131      0.0006
     94  CD1       19.3330   43.9530   83.2980 C.ar  131  TRP131      0.0946
     95  CD2       17.1760   43.3800   83.1740 C.ar  131  TRP131      0.0152
     96  NE1       19.2120   42.9890   82.3250 N.ar  131  TRP131     -0.2442
     97  CE2       17.8950   42.6210   82.2310 C.ar  131  TRP131      0.0810
     98  CE3       15.8020   43.1920   83.2780 C.ar  131  TRP131      0.0012
     99  CZ2       17.2760   41.6890   81.4000 C.ar  131  TRP131      0.0191
    100  CZ3       15.1930   42.2710   82.4580 C.ar  131  TRP131      0.0001
    101  CH2       15.9260   41.5300   81.5310 C.ar  131  TRP131      0.0015
    102  N         15.1950   46.3400   86.4150 N.am  132  ILE132     -0.1963
    103  CA        14.6280   46.8080   87.6660 C.3   132  ILE132      0.1727
    104  C         15.5110   46.2640   88.7930 C.2   132  ILE132      0.2616
    105  O         15.8410   46.9800   89.7420 O.2   132  ILE132     -0.2715
    106  CB        13.1820   46.2970   87.8520 C.3   132  ILE132      0.0290
    107  CG1       12.2590   46.9480   86.8110 C.3   132  ILE132      0.0022
    108  CG2       12.6970   46.5980   89.2610 C.3   132  ILE132      0.0023
    109  CD1       10.8240   46.5110   86.8760 C.3   132  ILE132      0.0001
    110  N         15.9240   45.0050   88.6710 N.am  133  GLU133     -0.1977
    111  CA        16.7520   44.4060   89.7000 C.3   133  GLU133      0.1602
    112  C         17.8680   45.3400   90.1210 C.2   133  GLU133      0.2287
    113  O         18.1790   45.4290   91.3030 O.2   133  GLU133     -0.2864
    114  CB        17.3670   43.0900   89.2350 C.3   133  GLU133      0.0415
    115  CG        17.9580   42.2770   90.3970 C.3   133  GLU133      0.1163
    116  CD        16.8920   41.4740   91.1650 C.2   133  GLU133      0.3649
    117  OE1       15.6880   41.8180   91.0630 O.co2 133  GLU133     -0.2457
    118  OE2       17.2680   40.5020   91.8720 O.co2 133  GLU133     -0.2457
    119  N         17.8780   48.6080   89.8900 N.3   135  ALA135     -0.1245
    120  CA        17.2100   49.6890   90.5930 C.3   135  ALA135      0.1562
    121  C         17.0370   49.3060   92.0680 C.2   135  ALA135      0.2260
    122  O         17.6990   49.8780   92.9440 O.2   135  ALA135     -0.2867
    123  CB        15.8690   49.9590   89.9550 C.3   135  ALA135      0.0290
@<TRIPOS>BOND
     1     1     2    1
     2     4     3    2
     3     3     2    1
     4     2     5    1
     5     5     6    1
     6     6     7   ar
     7     6     8   ar
     8     7     9   ar
     9     8    10   ar
    10     9    11   ar
    11    10    11   ar
    12    11    12    1
    13    13    14    1
    14    15    14    1
    15    15    16    2
    16    14    17    1
    17    59    57   ar
    18    19    18   ar
    19    19    21   ar
    20    17    18    1
    21    55    56    1
    22    55    52    1
    23    57    58   ar
    24    57    56    1
    25    18    20   ar
    26    21    22   ar
    27    51    52    1
    28    52    53    1
    29    20    22   ar
    30    20    23   ar
    31    22    24   ar
    32    33    27    1
    33    33    32    1
    34    27    28    1
    35    53    54    2
    36    23    25   ar
    37    24    26   ar
    38    31    28    1
    39    31    32    1
    40    28    29    1
    41    87    84    1
    42    25    26   ar
    43    48    49    2
    44    48    47    1
    45    50    47    1
    46    99   101   ar
    47    99    97   ar
    48   101   100   ar
    49    29    34   am
    50    29    30    2
    51    47    46    1
    52    34    35    1
    53    86    85    2
    54    84    85    1
    55    84    83    1
    56    46    36   am
    57    97    96   ar
    58    97    95   ar
    59    96    94   ar
    60   100    98   ar
    61    85    88   am
    62    36    35    1
    63    36    37    2
    64    35    38    1
    65    95    98   ar
    66    95    93   ar
    67    94    93   ar
    68    40    42   ar
    69    40    39   ar
    70    38    39    1
    71    71    70   ar
    72    42    44   ar
    73    93    92    1
    74    39    41   ar
    75    88    89    1
    76    44    45    1
    77    44    43   ar
    78    41    43   ar
    79    70    72   ar
    80    70    69    1
    81    89    92    1
    82    89    90    1
    83    69    68    1
    84    90   102   am
    85    90    91    2
    86    77    74    1
    87    77    78    1
    88   102   103    1
    89    68    65    1
    90    74    73    1
    91    74    75    1
    92   107   109    1
    93   107   106    1
    94    73    66   am
    95    78    79   ar
    96    78    80   ar
    97    67    66    2
    98    66    65    1
    99    76    75    2
   100   103   106    1
   101   103   104    1
   102    65    64    1
   103    79    81   ar
   104    80    82   ar
   105   106   108    1
   106    81    82   ar
   107   110   104   am
   108   110   111    1
   109   104   105    2
   110    64    62   am
   111   114   111    1
   112   114   115    1
   113   111   112    1
   114    62    63    2
   115    62    61    1
   116   119   120    1
   117   123   120    1
   118   112   113    2
   119   115   116    1
   120   120   121    1
   121    61    60    1
   122   117   116   ar
   123   116   118   ar
   124   121   122    2
