@<TRIPOS>MOLECULE
tmp/2e1rA01.pdb
 125 124 0 0 0
SMALL
GASTEIGER

@<TRIPOS>ATOM
      1  N         32.2650  -36.5580  -17.4540 N.3    27  HIS27      -0.1226
      2  CA        33.0920  -37.5930  -18.0730 C.3    27  HIS27       0.1752
      3  C         32.7730  -38.9130  -17.3950 C.2    27  HIS27       0.2596
      4  O         32.1130  -38.9450  -16.3590 O.2    27  HIS27      -0.2718
      5  CB        34.5440  -37.2390  -17.8430 C.3    27  HIS27       0.0759
      6  CG        35.5350  -38.0100  -18.6590 C.ar   27  HIS27       0.0818
      7  ND1       35.5810  -39.3890  -18.6900 N.ar   27  HIS27      -0.2268
      8  CD2       36.5640  -37.5780  -19.4170 C.ar   27  HIS27       0.1154
      9  CE1       36.6030  -39.7680  -19.4400 C.ar   27  HIS27       0.1986
     10  NE2       37.2160  -38.6930  -19.8920 N.ar   27  HIS27      -0.2212
     11  N         33.2650  -39.9970  -17.9720 N.am   28  VAL28      -0.1966
     12  CA        32.9890  -41.3300  -17.4590 C.3    28  VAL28       0.1727
     13  C         33.2960  -41.6020  -15.9910 C.2    28  VAL28       0.2616
     14  O         32.5310  -42.2830  -15.3150 O.2    28  VAL28      -0.2715
     15  CB        33.6960  -42.3900  -18.3190 C.3    28  VAL28       0.0290
     16  CG1       33.5120  -43.7730  -17.7100 C.3    28  VAL28       0.0023
     17  CG2       33.1340  -42.3540  -19.7370 C.3    28  VAL28       0.0023
     18  N         34.4050  -41.0940  -15.4840 N.am   29  ASP29      -0.1957
     19  CA        34.7290  -41.3440  -14.0860 C.3    29  ASP29       0.1840
     20  C         35.1740  -40.0380  -13.4460 C.2    29  ASP29       0.2622
     21  O         36.3640  -39.8350  -13.1860 O.2    29  ASP29      -0.2715
     22  CB        35.8630  -42.3760  -13.9760 C.3    29  ASP29       0.1450
     23  CG        35.5120  -43.7170  -14.5950 C.2    29  ASP29       0.3671
     24  OD1       34.7320  -44.4730  -13.9720 O.co2  29  ASP29      -0.2456
     25  OD2       36.0230  -44.0090  -15.7030 O.co2  29  ASP29      -0.2456
     26  N         34.2340  -39.1410  -13.1870 N.am   30  HIS30      -0.1959
     27  CA        34.6300  -37.8790  -12.5990 C.3    30  HIS30       0.1787
     28  C         33.8770  -37.4810  -11.3420 C.2    30  HIS30       0.2621
     29  O         33.9710  -36.3420  -10.8880 O.2    30  HIS30      -0.2715
     30  CB        34.5790  -36.7740  -13.6580 C.3    30  HIS30       0.0785
     31  CG        35.7180  -36.8290  -14.6300 C.ar   30  HIS30       0.0821
     32  ND1       36.9100  -37.4630  -14.3440 N.ar   30  HIS30      -0.2267
     33  CD2       35.8490  -36.3440  -15.8830 C.ar   30  HIS30       0.1154
     34  CE1       37.7180  -37.3770  -15.3860 C.ar   30  HIS30       0.1986
     35  NE2       37.0930  -36.7040  -16.3370 N.ar   30  HIS30      -0.2212
     36  N         33.1520  -38.4370  -10.7700 N.am   31  GLY31      -0.1940
     37  CA        32.4200  -38.1850   -9.5410 C.3    31  GLY31       0.2014
     38  C         31.0120  -37.6670   -9.7040 C.2    31  GLY31       0.2639
     39  O         30.4230  -37.1420   -8.7620 O.2    31  GLY31      -0.2714
     40  N         30.4660  -37.8280  -10.8990 N.am   32  LYS32      -0.1963
     41  CA        29.1270  -37.3530  -11.1860 C.3    32  LYS32       0.1728
     42  C         28.0830  -37.8860  -10.2310 C.2    32  LYS32       0.2617
     43  O         27.1150  -37.1980   -9.9290 O.2    32  LYS32      -0.2715
     44  CB        28.7400  -37.7160  -12.6090 C.3    32  LYS32       0.0311
     45  CG        27.3300  -37.3620  -12.9580 C.3    32  LYS32       0.0038
     46  CD        27.0750  -37.7060  -14.3970 C.3    32  LYS32       0.0206
     47  CE        25.6300  -37.4940  -14.7760 C.3    32  LYS32       0.1093
     48  NZ        25.4430  -37.8140  -16.2130 N.3    32  LYS32      -0.1314
     49  N         28.2720  -39.1080   -9.7520 N.am   33  SER33      -0.1936
     50  CA        27.3050  -39.6940   -8.8370 C.3    33  SER33       0.2055
     51  C         27.6090  -39.3870   -7.3800 C.2    33  SER33       0.2643
     52  O         26.7010  -39.0680   -6.6080 O.2    33  SER33      -0.2714
     53  CB        27.2140  -41.2040   -9.0550 C.3    33  SER33       0.2130
     54  OG        26.6900  -41.4890  -10.3450 O.3    33  SER33      -0.2179
     55  N         28.8720  -39.4750   -6.9840 N.am   34  THR34      -0.1950
     56  CA        29.1930  -39.1620   -5.6000 C.3    34  THR34       0.1897
     57  C         28.7810  -37.7100   -5.3550 C.2    34  THR34       0.2313
     58  O         28.3440  -37.3620   -4.2570 O.2    34  THR34      -0.2863
     59  CB        30.7020  -39.3400   -5.2890 C.3    34  THR34       0.1794
     60  OG1       31.4700  -38.4080   -6.0550 O.3    34  THR34      -0.2208
     61  CG2       31.1510  -40.7420   -5.6360 C.3    34  THR34       0.0378
     62  N         36.5650  -31.2430   -9.7990 N.3   144  ASN144     -0.1225
     63  CA        36.4850  -32.2490   -8.7290 C.3   144  ASN144      0.1785
     64  C         37.8000  -32.9590   -8.3870 C.2   144  ASN144      0.2597
     65  O         38.8130  -32.7560   -9.0400 O.2   144  ASN144     -0.2718
     66  CB        35.4060  -33.2880   -9.1030 C.3   144  ASN144      0.1169
     67  CG        34.8390  -34.0290   -7.8940 C.2   144  ASN144      0.2627
     68  OD1       34.7120  -33.4670   -6.8100 O.2   144  ASN144     -0.2716
     69  ND2       34.4680  -35.2910   -8.0900 N.am  144  ASN144     -0.0877
     70  N         37.7770  -33.7820   -7.3440 N.am  145  LYS145     -0.1980
     71  CA        38.9550  -34.5360   -6.9250 C.3   145  LYS145      0.1596
     72  C         40.1920  -33.6820   -6.6710 C.2   145  LYS145      0.2287
     73  O         41.2930  -34.0190   -7.1120 O.2   145  LYS145     -0.2864
     74  CB        39.2910  -35.6080   -7.9660 C.3   145  LYS145      0.0298
     75  CG        38.1110  -36.4810   -8.3440 C.3   145  LYS145      0.0038
     76  CD        38.5100  -37.6390   -9.2290 C.3   145  LYS145      0.0206
     77  CE        37.3050  -38.5170   -9.5290 C.3   145  LYS145      0.1093
     78  NZ        37.6550  -39.7210  -10.3330 N.3   145  LYS145     -0.1314
     79  N         41.4400  -33.5140   -4.0650 N.3   147  ASP147     -0.1225
     80  CA        42.1590  -34.2510   -3.0400 C.3   147  ASP147      0.1805
     81  C         43.2870  -35.0950   -3.6100 C.2   147  ASP147      0.2597
     82  O         44.2940  -35.3200   -2.9480 O.2   147  ASP147     -0.2718
     83  CB        41.2100  -35.1420   -2.2360 C.3   147  ASP147      0.1424
     84  CG        40.4390  -36.1060   -3.1050 C.2   147  ASP147      0.3668
     85  OD1       40.1910  -37.2390   -2.6480 O.co2 147  ASP147     -0.2456
     86  OD2       40.0720  -35.7310   -4.2370 O.co2 147  ASP147     -0.2456
     87  N         43.1280  -35.5740   -4.8350 N.am  148  ARG148     -0.1979
     88  CA        44.1790  -36.3770   -5.4330 C.3   148  ARG148      0.1597
     89  C         45.4660  -35.5550   -5.5090 C.2   148  ARG148      0.2287
     90  O         46.5200  -35.9830   -5.0410 O.2   148  ARG148     -0.2864
     91  CB        43.7420  -36.8470   -6.8200 C.3   148  ARG148      0.0334
     92  CG        42.6670  -37.9230   -6.7750 C.3   148  ARG148      0.0492
     93  CD        43.2650  -39.3210   -6.9190 C.3   148  ARG148      0.2205
     94  NE        42.9130  -39.9210   -8.2090 N.pl3 148  ARG148     -0.0865
     95  CZ        43.3460  -41.1050   -8.6450 C.cat 148  ARG148      0.5346
     96  NH1       44.1640  -41.8370   -7.8970 N.pl3 148  ARG148      0.1354
     97  NH2       42.9500  -41.5660   -9.8300 N.pl3 148  ARG148      0.1354
     98  N         36.2130  -31.5630   -3.4950 N.3   199  SER199     -0.1202
     99  CA        36.2750  -33.0160   -3.5910 C.3   199  SER199      0.2020
    100  C         34.9290  -33.6420   -3.2520 C.2   199  SER199      0.2619
    101  O         34.4700  -33.5640   -2.1040 O.2   199  SER199     -0.2717
    102  CB        37.3030  -33.5880   -2.6250 C.3   199  SER199      0.2103
    103  OG        36.9310  -34.9140   -2.2710 O.3   199  SER199     -0.2182
    104  N         34.3160  -34.2780   -4.2480 N.am  200  GLY200     -0.1942
    105  CA        33.0330  -34.9250   -4.0480 C.3   200  GLY200      0.2014
    106  C         33.1050  -36.1130   -3.1090 C.2   200  GLY200      0.2639
    107  O         32.1600  -36.3830   -2.3770 O.2   200  GLY200     -0.2714
    108  N         34.2220  -36.8300   -3.1210 N.am  201  LEU201     -0.1963
    109  CA        34.3650  -37.9830   -2.2440 C.3   201  LEU201      0.1728
    110  C         34.5580  -37.5290   -0.8080 C.2   201  LEU201      0.2616
    111  O         33.9770  -38.1020    0.1100 O.2   201  LEU201     -0.2715
    112  CB        35.5560  -38.8440   -2.6630 C.3   201  LEU201      0.0311
    113  CG        35.6910  -40.1580   -1.8990 C.3   201  LEU201      0.0022
    114  CD1       34.4910  -41.0380   -2.1990 C.3   201  LEU201      0.0001
    115  CD2       36.9670  -40.8560   -2.2990 C.3   201  LEU201      0.0001
    116  N         35.3770  -36.4970   -0.6220 N.am  202  HIS202     -0.1973
    117  CA        35.6480  -35.9650    0.7120 C.3   202  HIS202      0.1656
    118  C         34.4860  -35.1280    1.2730 C.2   202  HIS202      0.2291
    119  O         34.3460  -34.9440    2.4930 O.2   202  HIS202     -0.2864
    120  CB        36.9430  -35.1530    0.6830 C.3   202  HIS202      0.0771
    121  CG        38.1810  -35.9860    0.8450 C.ar  202  HIS202      0.0820
    122  ND1       38.3620  -37.1940    0.1960 N.ar  202  HIS202     -0.2267
    123  CD2       39.3100  -35.7740    1.5670 C.ar  202  HIS202      0.1154
    124  CE1       39.5470  -37.6870    0.5100 C.ar  202  HIS202      0.1986
    125  NE2       40.1420  -36.8450    1.3400 N.ar  202  HIS202     -0.2212
@<TRIPOS>BOND
     1    10     9   ar
     2    10     8   ar
     3    17    15    1
     4     9     7   ar
     5     8     6   ar
     6     7     6   ar
     7     6     5    1
     8    15    16    1
     9    15    12    1
    10     2     5    1
    11     2     1    1
    12     2     3    1
    13    11    12    1
    14    11     3   am
    15    12    13    1
    16     3     4    2
    17    35    33   ar
    18    35    34   ar
    19    48    47    1
    20    13    18   am
    21    13    14    2
    22    33    31   ar
    23    25    23   ar
    24    18    19    1
    25    34    32   ar
    26    47    46    1
    27    31    32   ar
    28    31    30    1
    29    23    22    1
    30    23    24   ar
    31    46    45    1
    32    19    22    1
    33    19    20    1
    34    30    27    1
    35    20    26   am
    36    20    21    2
    37    26    27    1
    38    45    44    1
    39    44    41    1
    40    27    28    1
    41    28    29    2
    42    28    36   am
    43    41    40    1
    44    41    42    1
    45    40    38   am
    46    36    37    1
    47    54    53    1
    48    78    77    1
    49    42    43    2
    50    42    49   am
    51    97    95    1
    52    62    63    1
    53    49    50    1
    54    38    37    1
    55    38    39    2
    56    77    76    1
    57    76    75    1
    58    66    63    1
    59    66    67    1
    60    53    50    1
    61    65    64    2
    62    50    51    1
    63    63    64    1
    64    95    94    2
    65    95    96    1
    66    64    70   am
    67    75    74    1
    68    94    93    1
    69    69    67   am
    70    74    71    1
    71    67    68    2
    72    51    55   am
    73    51    52    2
    74    70    71    1
    75    73    72    2
    76    55    56    1
    77    71    72    1
    78    93    92    1
    79    91    92    1
    80    91    88    1
    81    60    59    1
    82    61    59    1
    83    56    57    1
    84    56    59    1
    85    89    88    1
    86    89    90    2
    87    88    87    1
    88    57    58    2
    89    87    81   am
    90   104   105    1
    91   104   100   am
    92    86    84   ar
    93    79    80    1
    94   105   106    1
    95    81    80    1
    96    81    82    2
    97    99    98    1
    98    99   100    1
    99    99   102    1
   100   100   101    2
   101   108   106   am
   102   108   109    1
   103   106   107    2
   104    84    85   ar
   105    84    83    1
   106    80    83    1
   107   112   109    1
   108   112   113    1
   109   102   103    1
   110   115   113    1
   111   109   110    1
   112   114   113    1
   113   110   116   am
   114   110   111    2
   115   116   117    1
   116   122   124   ar
   117   122   121   ar
   118   124   125   ar
   119   120   117    1
   120   120   121    1
   121   117   118    1
   122   121   123   ar
   123   118   119    2
   124   125   123   ar
