@<TRIPOS>MOLECULE
tmp/2e1rA00.pdb
 188 184 0 0 0
SMALL
GASTEIGER

@<TRIPOS>ATOM
      1  N         10.1540  -47.9500  -42.6180 N.3   472  SER472     -0.1203
      2  CA        10.0870  -48.8880  -43.7200 C.3   472  SER472      0.2005
      3  C         10.6090  -50.1990  -43.1660 C.2   472  SER472      0.2461
      4  O         11.3980  -50.2060  -42.2190 O.2   472  SER472     -0.2732
      5  CB        10.9850  -48.4480  -44.8830 C.3   472  SER472      0.2103
      6  OG        10.5710  -47.2120  -45.4330 O.3   472  SER472     -0.2182
      7  N         10.1260  -51.3290  -43.6950 N.am  473  PRO473     -0.2717
      8  CA        10.6810  -52.5590  -43.1370 C.3   473  PRO473      0.1535
      9  C         12.0680  -52.6940  -43.7420 C.2   473  PRO473      0.2598
     10  O         12.2720  -52.3610  -44.9060 O.2   473  PRO473     -0.2715
     11  CB         9.7190  -53.6220  -43.6380 C.3   473  PRO473      0.0310
     12  CG         8.4260  -52.8920  -43.6610 C.3   473  PRO473      0.0237
     13  CD         8.8120  -51.5870  -44.3050 C.3   473  PRO473      0.0939
     14  N         13.0330  -53.1220  -42.9430 N.am  474  VAL474     -0.1978
     15  CA        14.3930  -53.3010  -43.4400 C.3   474  VAL474      0.1596
     16  C         15.0310  -54.4620  -42.7400 C.2   474  VAL474      0.2287
     17  O         15.8520  -55.1570  -43.3240 O.2   474  VAL474     -0.2864
     18  CB        15.3280  -52.0750  -43.2070 C.3   474  VAL474      0.0276
     19  CG1       14.9900  -50.9630  -44.1770 C.3   474  VAL474      0.0022
     20  CG2       15.2370  -51.6020  -41.7610 C.3   474  VAL474      0.0022
     21  N         15.0760  -57.9950  -41.7070 N.3   476  GLN476     -0.1245
     22  CA        14.3760  -59.2340  -42.0340 C.3   476  GLN476      0.1566
     23  C         15.2370  -60.4860  -41.9260 C.2   476  GLN476      0.2260
     24  O         16.4570  -60.4210  -42.0210 O.2   476  GLN476     -0.2867
     25  CB        13.7600  -59.1350  -43.4350 C.3   476  GLN476      0.0367
     26  CG        14.7570  -58.9150  -44.5870 C.3   476  GLN476      0.0905
     27  CD        14.0810  -58.6590  -45.9460 C.2   476  GLN476      0.2608
     28  OE1       14.4690  -59.2380  -46.9550 O.2   476  GLN476     -0.2717
     29  NE2       13.0890  -57.7780  -45.9680 N.am  476  GLN476     -0.0878
     30  N          6.0760  -56.9670  -42.3440 N.3   505  LEU505     -0.1245
     31  CA         5.9810  -57.4200  -43.7280 C.3   505  LEU505      0.1561
     32  C          6.4200  -58.8720  -43.8610 C.2   505  LEU505      0.2260
     33  O          7.4260  -59.2860  -43.2720 O.2   505  LEU505     -0.2867
     34  CB         6.8530  -56.5420  -44.6120 C.3   505  LEU505      0.0270
     35  CG         6.8100  -56.8470  -46.1020 C.3   505  LEU505      0.0019
     36  CD1        5.4370  -56.5070  -46.6440 C.3   505  LEU505      0.0001
     37  CD2        7.8910  -56.0470  -46.8090 C.3   505  LEU505      0.0001
     38  N          6.8260  -62.2040  -46.8340 N.3   507  TYR507     -0.1227
     39  CA         6.8050  -62.5250  -48.2460 C.3   507  TYR507      0.1736
     40  C          7.6820  -63.7160  -48.5520 C.2   507  TYR507      0.2595
     41  O          8.3620  -64.2260  -47.6620 O.2   507  TYR507     -0.2718
     42  CB         7.2430  -61.3130  -49.0610 C.3   507  TYR507      0.0548
     43  CG         8.6810  -60.8800  -48.8680 C.ar  507  TYR507     -0.0200
     44  CD1        9.6960  -61.4120  -49.6560 C.ar  507  TYR507     -0.0009
     45  CD2        9.0170  -59.8970  -47.9310 C.ar  507  TYR507     -0.0009
     46  CE1       11.0110  -60.9810  -49.5270 C.ar  507  TYR507      0.0417
     47  CE2       10.3320  -59.4530  -47.7920 C.ar  507  TYR507      0.0417
     48  CZ        11.3270  -60.0010  -48.5990 C.ar  507  TYR507      0.1957
     49  OH        12.6360  -59.5750  -48.4910 O.3   507  TYR507     -0.2866
     50  N          7.6650  -64.1580  -49.8070 N.am  508  MET508     -0.1965
     51  CA         8.4430  -65.3150  -50.2140 C.3   508  MET508      0.1736
     52  C          9.6900  -64.8760  -50.9300 C.2   508  MET508      0.2617
     53  O          9.6330  -64.0690  -51.8430 O.2   508  MET508     -0.2715
     54  CB         7.6160  -66.1810  -51.1380 C.3   508  MET508      0.0427
     55  CG         8.2630  -67.4900  -51.4780 C.3   508  MET508      0.0599
     56  SD         7.4640  -68.8570  -50.6130 S.3   508  MET508     -0.1393
     57  CE         8.3530  -68.8860  -49.0510 C.3   508  MET508      0.0692
     58  N         10.8300  -65.4060  -50.5380 N.am  509  SER509     -0.1936
     59  CA        12.0460  -64.9850  -51.2030 C.3   509  SER509      0.2055
     60  C         12.1530  -65.6600  -52.5530 C.2   509  SER509      0.2643
     61  O         11.5180  -66.6770  -52.7930 O.2   509  SER509     -0.2714
     62  CB        13.2820  -65.3120  -50.3470 C.3   509  SER509      0.2130
     63  OG        13.7290  -66.6460  -50.5280 O.3   509  SER509     -0.2179
     64  N         12.9420  -65.0780  -53.4440 N.am  510  GLU510     -0.1963
     65  CA        13.1400  -65.6610  -54.7520 C.3   510  GLU510      0.1733
     66  C         13.5360  -67.1160  -54.5180 C.2   510  GLU510      0.2617
     67  O         13.1370  -68.0170  -55.2610 O.2   510  GLU510     -0.2715
     68  CB        14.2690  -64.9330  -55.4810 C.3   510  GLU510      0.0429
     69  CG        14.4170  -65.2880  -56.9490 C.3   510  GLU510      0.1163
     70  CD        13.2930  -64.7120  -57.8160 C.2   510  GLU510      0.3649
     71  OE1       12.4560  -63.9350  -57.2810 O.co2 510  GLU510     -0.2457
     72  OE2       13.2560  -65.0300  -59.0350 O.co2 510  GLU510     -0.2457
     73  N         14.2910  -67.3390  -53.4470 N.am  511  SER511     -0.1950
     74  CA        14.7900  -68.6660  -53.1130 C.3   511  SER511      0.1924
     75  C         13.8480  -69.5050  -52.2520 C.2   511  SER511      0.2314
     76  O         14.2770  -70.3950  -51.5320 O.2   511  SER511     -0.2863
     77  CB        16.1510  -68.5070  -52.4450 C.3   511  SER511      0.2116
     78  OG        16.9270  -67.5510  -53.1640 O.3   511  SER511     -0.2180
     79  N          9.4800  -65.0770  -45.3080 N.3   515  ILE515     -0.1245
     80  CA        10.3030  -64.0040  -44.7900 C.3   515  ILE515      0.1561
     81  C          9.5590  -62.9760  -43.9590 C.2   515  ILE515      0.2260
     82  O          8.4710  -62.5190  -44.3200 O.2   515  ILE515     -0.2867
     83  CB        11.0450  -63.3320  -45.9680 C.3   515  ILE515      0.0252
     84  CG1       12.1860  -64.2510  -46.4080 C.3   515  ILE515      0.0019
     85  CG2       11.5400  -61.9590  -45.5900 C.3   515  ILE515      0.0019
     86  CD1       12.9910  -63.7340  -47.5150 C.3   515  ILE515      0.0001
     87  N         18.2640  -64.7170  -44.3020 N.3   545  PRO545     -0.2102
     88  CA        17.6730  -65.1080  -45.5850 C.3   545  PRO545      0.1504
     89  C         18.7040  -65.4550  -46.6400 C.2   545  PRO545      0.2576
     90  O         19.7150  -64.7670  -46.7660 O.2   545  PRO545     -0.2718
     91  CB        16.8520  -63.8880  -45.9690 C.3   545  PRO545      0.0282
     92  CG        17.6340  -62.7860  -45.3660 C.3   545  PRO545      0.0208
     93  CD        17.9460  -63.3230  -43.9880 C.3   545  PRO545      0.0893
     94  N         18.4340  -66.5150  -47.4000 N.am  546  VAL546     -0.1966
     95  CA        19.3270  -66.9700  -48.4660 C.3   546  VAL546      0.1727
     96  C         19.2520  -66.0670  -49.6930 C.2   546  VAL546      0.2616
     97  O         18.1510  -65.7480  -50.1600 O.2   546  VAL546     -0.2715
     98  CB        18.9560  -68.3610  -48.9140 C.3   546  VAL546      0.0290
     99  CG1       19.9450  -68.8440  -49.9310 C.3   546  VAL546      0.0023
    100  CG2       18.8970  -69.2740  -47.7240 C.3   546  VAL546      0.0023
    101  N         20.4160  -65.6710  -50.2150 N.am  547  VAL547     -0.1963
    102  CA        20.4950  -64.7900  -51.3880 C.3   547  VAL547      0.1727
    103  C         20.5940  -65.5340  -52.7130 C.2   547  VAL547      0.2616
    104  O         21.3000  -66.5360  -52.8410 O.2   547  VAL547     -0.2715
    105  CB        21.6870  -63.8300  -51.3040 C.3   547  VAL547      0.0290
    106  CG1       21.8100  -63.0350  -52.5860 C.3   547  VAL547      0.0023
    107  CG2       21.4920  -62.9000  -50.1440 C.3   547  VAL547      0.0023
    108  N         19.8810  -65.0130  -53.7040 N.am  548  ALA548     -0.1977
    109  CA        19.8420  -65.6150  -55.0230 C.3   548  ALA548      0.1597
    110  C         20.8940  -65.0100  -55.9240 C.2   548  ALA548      0.2287
    111  O         21.2440  -63.8440  -55.7910 O.2   548  ALA548     -0.2864
    112  CB        18.4500  -65.4270  -55.6290 C.3   548  ALA548      0.0319
    113  N         22.7910  -65.1300  -60.1350 N.3   550  ARG550     -0.1245
    114  CA        22.5300  -65.3220  -61.5460 C.3   550  ARG550      0.1563
    115  C         23.7940  -65.8260  -62.2240 C.2   550  ARG550      0.2260
    116  O         24.8590  -65.2380  -62.1070 O.2   550  ARG550     -0.2867
    117  CB        22.0910  -63.9890  -62.1620 C.3   550  ARG550      0.0307
    118  CG        20.6060  -63.8550  -62.4500 C.3   550  ARG550      0.0489
    119  CD        19.7020  -64.5830  -61.4530 C.3   550  ARG550      0.2205
    120  NE        18.3140  -64.1320  -61.5730 N.pl3 550  ARG550     -0.0865
    121  CZ        17.2930  -64.6150  -60.8710 C.cat 550  ARG550      0.5346
    122  NH1       17.4720  -65.5910  -59.9830 N.pl3 550  ARG550      0.1354
    123  NH2       16.0910  -64.0850  -61.0290 N.pl3 550  ARG550      0.1354
    124  N         22.8140  -59.7940  -56.2300 N.3   713  PRO713     -0.2116
    125  CA        21.7880  -58.7610  -56.1260 C.3   713  PRO713      0.1372
    126  C         22.4220  -57.5680  -55.4100 C.2   713  PRO713      0.2244
    127  O         23.3750  -57.7200  -54.6460 O.2   713  PRO713     -0.2868
    128  CB        20.7090  -59.4130  -55.2620 C.3   713  PRO713      0.0268
    129  CG        20.9850  -60.8760  -55.3630 C.3   713  PRO713      0.0207
    130  CD        22.4760  -60.9610  -55.4090 C.3   713  PRO713      0.0892
    131  N         21.1810  -53.8630  -53.4020 N.3   715  PHE715     -0.1241
    132  CA        20.1640  -52.9580  -52.8660 C.3   715  PHE715      0.1605
    133  C         20.5180  -51.5300  -53.2490 C.2   715  PHE715      0.2264
    134  O         21.5980  -51.2530  -53.7360 O.2   715  PHE715     -0.2867
    135  CB        20.1710  -52.9840  -51.3320 C.3   715  PHE715      0.0534
    136  CG        19.4740  -54.1800  -50.6930 C.ar  715  PHE715     -0.0203
    137  CD1       18.1000  -54.3740  -50.8350 C.ar  715  PHE715     -0.0042
    138  CD2       20.1850  -55.0420  -49.8390 C.ar  715  PHE715     -0.0042
    139  CE1       17.4550  -55.3850  -50.1350 C.ar  715  PHE715     -0.0003
    140  CE2       19.5380  -56.0480  -49.1450 C.ar  715  PHE715     -0.0003
    141  CZ        18.1730  -56.2150  -49.2930 C.ar  715  PHE715     -0.0000
    142  N         23.5520  -57.1070  -51.5250 N.3   760  VAL760     -0.1245
    143  CA        22.5640  -57.7430  -50.6940 C.3   760  VAL760      0.1561
    144  C         23.2180  -58.6850  -49.7050 C.2   760  VAL760      0.2260
    145  O         22.8310  -58.6920  -48.5490 O.2   760  VAL760     -0.2867
    146  CB        21.4890  -58.4690  -51.5450 C.3   760  VAL760      0.0252
    147  CG1       20.3590  -58.9610  -50.6580 C.3   760  VAL760      0.0019
    148  CG2       20.9180  -57.5170  -52.5770 C.3   760  VAL760      0.0019
    149  N         15.8780  -49.9090  -47.7040 N.3   782  MET782     -0.1230
    150  CA        16.3690  -50.6160  -48.8730 C.3   782  MET782      0.1702
    151  C         15.3730  -50.9360  -49.9740 C.2   782  MET782      0.2592
    152  O         14.1620  -50.7620  -49.8430 O.2   782  MET782     -0.2718
    153  CB        17.0170  -51.9220  -48.4280 C.3   782  MET782      0.0401
    154  CG        17.6230  -51.8470  -47.0550 C.3   782  MET782      0.0596
    155  SD        19.3060  -52.4960  -47.0160 S.3   782  MET782     -0.1393
    156  CE        19.0730  -54.0210  -45.9400 C.3   782  MET782      0.0692
    157  N         15.9230  -51.4510  -51.0600 N.am  783  VAL783     -0.1966
    158  CA        15.1520  -51.8380  -52.2220 C.3   783  VAL783      0.1727
    159  C         16.1200  -52.4670  -53.2230 C.2   783  VAL783      0.2616
    160  O         17.2650  -52.0110  -53.3520 O.2   783  VAL783     -0.2715
    161  CB        14.4450  -50.6090  -52.8250 C.3   783  VAL783      0.0290
    162  CG1       14.5510  -50.6000  -54.3170 C.3   783  VAL783      0.0023
    163  CG2       13.0080  -50.6290  -52.4270 C.3   783  VAL783      0.0023
    164  N         15.6780  -53.5270  -53.9070 N.am  784  PHE784     -0.1974
    165  CA        16.5290  -54.1920  -54.8970 C.3   784  PHE784      0.1639
    166  C         16.7820  -53.2460  -56.0450 C.2   784  PHE784      0.2290
    167  O         15.8620  -52.6140  -56.5320 O.2   784  PHE784     -0.2864
    168  CB        15.8740  -55.4380  -55.4600 C.3   784  PHE784      0.0560
    169  CG        16.6790  -56.0870  -56.5390 C.ar  784  PHE784     -0.0200
    170  CD1       17.8710  -56.7500  -56.2380 C.ar  784  PHE784     -0.0042
    171  CD2       16.2670  -56.0220  -57.8660 C.ar  784  PHE784     -0.0042
    172  CE1       18.6410  -57.3420  -57.2580 C.ar  784  PHE784     -0.0003
    173  CE2       17.0270  -56.6060  -58.8840 C.ar  784  PHE784     -0.0003
    174  CZ        18.2090  -57.2650  -58.5840 C.ar  784  PHE784     -0.0000
    175  N         21.7110  -56.2120  -60.7510 N.3   787  TRP787     -0.1241
    176  CA        22.6010  -57.3500  -60.6270 C.3   787  TRP787      0.1605
    177  C         23.9760  -56.8550  -60.9800 C.2   787  TRP787      0.2264
    178  O         24.1290  -55.9080  -61.7440 O.2   787  TRP787     -0.2867
    179  CB        22.2070  -58.4840  -61.5680 C.3   787  TRP787      0.0550
    180  CG        20.8860  -59.0910  -61.2350 C.ar  787  TRP787      0.0003
    181  CD1       19.6680  -58.7680  -61.7770 C.ar  787  TRP787      0.0946
    182  CD2       20.6270  -60.1100  -60.2490 C.ar  787  TRP787      0.0152
    183  NE1       18.6730  -59.5210  -61.1890 N.ar  787  TRP787     -0.2442
    184  CE2       19.2360  -60.3490  -60.2520 C.ar  787  TRP787      0.0810
    185  CE3       21.4330  -60.8360  -59.3620 C.ar  787  TRP787      0.0012
    186  CZ2       18.6460  -61.2920  -59.4050 C.ar  787  TRP787      0.0191
    187  CZ3       20.8340  -61.7670  -58.5260 C.ar  787  TRP787      0.0001
    188  CH2       19.4620  -61.9830  -58.5540 C.ar  787  TRP787      0.0015
@<TRIPOS>BOND
     1   118   117    1
     2   118   119    1
     3   115   116    2
     4   115   114    1
     5   117   114    1
     6   181   180   ar
     7   181   183   ar
     8   178   177    2
     9   120   119    1
    10   120   121    2
    11   179   180    1
    12   179   176    1
    13   114   113    1
    14   180   182   ar
    15   183   184   ar
    16   123   121    1
    17   177   176    1
    18   121   122    1
    19   175   176    1
    20   184   182   ar
    21   184   186   ar
    22   182   185   ar
    23   186   188   ar
    24   185   187   ar
    25    72    70   ar
    26   173   174   ar
    27   173   171   ar
    28   174   172   ar
    29   188   187   ar
    30   171   169   ar
    31    70    71   ar
    32    70    69    1
    33   172   170   ar
    34    69    68    1
    35   169   170   ar
    36   169   168    1
    37   167   166    2
    38   124   125    1
    39   124   130    1
    40   125   126    1
    41   125   128    1
    42   166   165    1
    43   110   111    2
    44   110   109    1
    45   112   109    1
    46    68    65    1
    47   168   165    1
    48   126   127    2
    49   130   129    1
    50   129   128    1
    51    67    66    2
    52   109   108    1
    53   165   164    1
    54    65    66    1
    55    65    64    1
    56    66    73   am
    57   162   161    1
    58   164   159   am
    59   134   133    2
    60   108   103   am
    61    73    74    1
    62    64    60   am
    63   131   132    1
    64   160   159    2
    65   133   132    1
    66   159   158    1
    67    78    77    1
    68    74    77    1
    69    74    75    1
    70   132   135    1
    71   104   103    2
    72   161   163    1
    73   161   158    1
    74    61    60    2
    75   103   102    1
    76   106   105    1
    77   148   146    1
    78    60    59    1
    79    75    76    2
    80   158   157    1
    81    53    52    2
    82   146   143    1
    83   146   147    1
    84   142   143    1
    85    55    54    1
    86    55    56    1
    87   102   105    1
    88   102   101    1
    89   135   136    1
    90   105   107    1
    91    59    58    1
    92    59    62    1
    93    54    51    1
    94   157   151   am
    95    52    58   am
    96    52    51    1
    97   137   136   ar
    98   137   139   ar
    99   143   144    1
   100   136   138   ar
   101    56    57    1
   102    63    62    1
   103   101    96   am
   104    51    50    1
   105    97    96    2
   106   139   141   ar
   107   151   152    2
   108   151   150    1
   109    99    98    1
   110   138   140   ar
   111    50    40   am
   112   144   145    2
   113    96    95    1
   114    44    46   ar
   115    44    43   ar
   116    46    48   ar
   117   141   140   ar
   118    42    43    1
   119    42    39    1
   120    98    95    1
   121    98   100    1
   122   150   153    1
   123   150   149    1
   124    43    45   ar
   125    48    49    1
   126    48    47   ar
   127    40    39    1
   128    40    41    2
   129    95    94    1
   130   153   154    1
   131    39    38    1
   132    45    47   ar
   133    86    84    1
   134    94    89   am
   135   154   155    1
   136   155   156    1
   137    28    27    2
   138    37    35    1
   139    90    89    2
   140    36    35    1
   141    89    88    1
   142    84    83    1
   143    35    34    1
   144    91    88    1
   145    91    92    1
   146    83    85    1
   147    83    80    1
   148    29    27   am
   149    27    26    1
   150    88    87    1
   151     6     5    1
   152    92    93    1
   153    79    80    1
   154    10     9    2
   155     5     2    1
   156    80    81    1
   157    34    31    1
   158    26    25    1
   159    82    81    2
   160    13     7    1
   161    13    12    1
   162    87    93    1
   163    19    18    1
   164    32    31    1
   165    32    33    2
   166     9     8    1
   167     9    14   am
   168    31    30    1
   169     2     3    1
   170     2     1    1
   171     7     3   am
   172     7     8    1
   173    12    11    1
   174    11     8    1
   175    15    18    1
   176    15    14    1
   177    15    16    1
   178    25    22    1
   179    17    16    2
   180    18    20    1
   181     3     4    2
   182    22    23    1
   183    22    21    1
   184    24    23    2
