@<TRIPOS>MOLECULE
tmp/2e1wA00.pdb
 204 196 0 0 0
SMALL
GASTEIGER

@<TRIPOS>ATOM
      1  N         56.3530   52.9540   26.3040 N.3    14  HIS14      -0.1241
      2  CA        55.8350   54.2990   26.0310 C.3    14  HIS14       0.1621
      3  C         55.4660   55.0620   27.2940 C.2    14  HIS14       0.2264
      4  O         54.5740   54.6470   28.0160 O.2    14  HIS14      -0.2867
      5  CB        54.6360   54.2370   25.0930 C.3    14  HIS14       0.0745
      6  CG        54.9660   53.7760   23.6830 C.ar   14  HIS14       0.0817
      7  ND1       55.1450   54.5840   22.6200 N.ar   14  HIS14      -0.2268
      8  CD2       55.0550   52.4530   23.2240 C.ar   14  HIS14       0.1154
      9  CE1       55.3300   53.7930   21.5180 C.ar   14  HIS14       0.1986
     10  NE2       55.2760   52.4490   21.8760 N.ar   14  HIS14      -0.2212
     11  N         53.7550   58.0070   27.9730 N.3    16  ASP16      -0.1225
     12  CA        52.2900   58.1750   28.0530 C.3    16  ASP16       0.1805
     13  C         51.3410   56.9490   28.0370 C.2    16  ASP16       0.2598
     14  O         50.1270   57.0210   27.9440 O.2    16  ASP16      -0.2718
     15  CB        51.8940   59.2120   27.0070 C.3    16  ASP16       0.1424
     16  CG        51.9580   58.6270   25.6010 C.2    16  ASP16       0.3668
     17  OD1       51.1580   59.0250   24.7660 O.co2  16  ASP16      -0.2456
     18  OD2       52.8070   57.7790   25.3390 O.co2  16  ASP16      -0.2456
     19  N         51.9570   55.7770   28.1330 N.am   17  GLY17      -0.1957
     20  CA        51.1910   54.5560   28.3920 C.3    17  GLY17       0.1869
     21  C         51.6970   53.7760   29.6310 C.2    17  GLY17       0.2309
     22  O         51.4700   52.5780   29.7970 O.2    17  GLY17      -0.2863
     23  N         41.4830   49.4710   16.1020 N.3    55  LEU55      -0.1245
     24  CA        42.1950   50.7440   16.2560 C.3    55  LEU55       0.1561
     25  C         41.4430   51.9350   16.9040 C.2    55  LEU55       0.2260
     26  O         41.9570   52.5140   17.8470 O.2    55  LEU55      -0.2867
     27  CB        42.9320   51.0990   14.9620 C.3    55  LEU55       0.0270
     28  CG        44.1870   51.9400   15.1640 C.3    55  LEU55       0.0019
     29  CD1       45.1330   51.7530   13.9850 C.3    55  LEU55       0.0001
     30  CD2       43.8770   53.4280   15.3220 C.3    55  LEU55       0.0001
     31  N         41.0360   50.9770   20.7580 N.3    58  PHE58      -0.1227
     32  CA        42.3910   51.2320   21.2890 C.3    58  PHE58       0.1736
     33  C         42.7890   52.6990   21.5070 C.2    58  PHE58       0.2595
     34  O         43.1660   53.1530   22.5810 O.2    58  PHE58      -0.2718
     35  CB        43.4440   50.5120   20.4200 C.3    58  PHE58       0.0547
     36  CG        44.8400   50.6680   20.9810 C.ar   58  PHE58      -0.0202
     37  CD1       45.2730   49.7910   21.9910 C.ar   58  PHE58      -0.0042
     38  CD2       45.6940   51.6740   20.4870 C.ar   58  PHE58      -0.0042
     39  CE1       46.5830   49.9150   22.5070 C.ar   58  PHE58      -0.0003
     40  CE2       46.9930   51.8020   21.0110 C.ar   58  PHE58      -0.0003
     41  CZ        47.4370   50.9310   22.0310 C.ar   58  PHE58      -0.0000
     42  N         42.6580   53.4290   20.3970 N.am   59  LEU59      -0.1980
     43  CA        42.9890   54.8600   20.3540 C.3    59  LEU59       0.1596
     44  C         42.2860   55.7010   21.4220 C.2    59  LEU59       0.2287
     45  O         42.7910   56.5630   22.1270 O.2    59  LEU59      -0.2864
     46  CB        42.7030   55.3800   18.9400 C.3    59  LEU59       0.0297
     47  CG        43.8420   56.1430   18.2510 C.3    59  LEU59       0.0022
     48  CD1       44.1900   57.4850   18.9170 C.3    59  LEU59       0.0001
     49  CD2       45.0510   55.2280   18.1290 C.3    59  LEU59       0.0001
     50  N         43.4680   56.2690   25.1490 N.3    62  PHE62      -0.1241
     51  CA        44.2670   57.5020   25.1350 C.3    62  PHE62       0.1605
     52  C         43.4510   58.7860   25.2620 C.2    62  PHE62       0.2264
     53  O         43.7820   59.7070   25.9940 O.2    62  PHE62      -0.2867
     54  CB        45.1700   57.5320   23.8860 C.3    62  PHE62       0.0534
     55  CG        46.2500   56.4600   23.9270 C.ar   62  PHE62      -0.0203
     56  CD1       46.1270   55.3020   23.1170 C.ar   62  PHE62      -0.0042
     57  CD2       47.3720   56.6600   24.7680 C.ar   62  PHE62      -0.0042
     58  CE1       47.1600   54.3500   23.0770 C.ar   62  PHE62      -0.0003
     59  CE2       48.3920   55.6920   24.7740 C.ar   62  PHE62      -0.0003
     60  CZ        48.2730   54.5710   23.9090 C.ar   62  PHE62      -0.0000
     61  N         58.2240   58.8600   24.0270 N.3    99  TYR99      -0.1227
     62  CA        56.9500   59.5500   23.8890 C.3    99  TYR99       0.1736
     63  C         56.9700   60.4760   22.6610 C.2    99  TYR99       0.2596
     64  O         58.0020   60.8830   22.1350 O.2    99  TYR99      -0.2718
     65  CB        56.5830   60.3800   25.1560 C.3    99  TYR99       0.0548
     66  CG        57.6890   61.3730   25.4860 C.ar   99  TYR99      -0.0200
     67  CD1       57.4790   62.7360   25.2160 C.ar   99  TYR99      -0.0009
     68  CD2       58.8940   60.9170   26.0570 C.ar   99  TYR99      -0.0009
     69  CE1       58.4540   63.6760   25.5440 C.ar   99  TYR99       0.0417
     70  CE2       59.8920   61.8460   26.3850 C.ar   99  TYR99       0.0417
     71  CZ        59.6480   63.2010   26.1100 C.ar   99  TYR99       0.1957
     72  OH        60.6330   64.1040   26.3860 O.3    99  TYR99      -0.2866
     73  N         55.7640   60.8820   22.2970 N.am  100  SER100     -0.1952
     74  CA        55.7000   62.1190   21.5250 C.3   100  SER100      0.1924
     75  C         55.5240   63.4100   22.3520 C.2   100  SER100      0.2314
     76  O         54.4710   63.6440   22.9250 O.2   100  SER100     -0.2863
     77  CB        54.5520   62.0180   20.5410 C.3   100  SER100      0.2116
     78  OG        54.8770   62.7860   19.3920 O.3   100  SER100     -0.2180
     79  N         52.3150   65.2890   21.6090 N.3   103  LEU103     -0.1245
     80  CA        51.0880   64.7590   22.2180 C.3   103  LEU103      0.1561
     81  C         50.7540   65.1100   23.6690 C.2   103  LEU103      0.2260
     82  O         49.6860   64.8000   24.1740 O.2   103  LEU103     -0.2867
     83  CB        50.9660   63.2480   22.0590 C.3   103  LEU103      0.0270
     84  CG        50.9030   62.7850   20.6190 C.3   103  LEU103      0.0019
     85  CD1       50.4010   61.3590   20.5610 C.3   103  LEU103      0.0001
     86  CD2       50.0990   63.6730   19.6990 C.3   103  LEU103      0.0001
     87  N         44.0280   65.9380   21.5570 N.3   114  TRP114     -0.1245
     88  CA        42.9620   65.6430   22.5300 C.3   114  TRP114      0.1565
     89  C         41.9040   66.6830   22.8410 C.2   114  TRP114      0.2260
     90  O         41.4790   66.7770   23.9730 O.2   114  TRP114     -0.2867
     91  CB        43.4350   65.1030   23.9010 C.3   114  TRP114      0.0332
     92  CG        44.7340   64.3930   23.7170 C.3   114  TRP114      0.0471
     93  CD1       45.9960   64.9490   23.9720 C.3   114  TRP114      0.1166
     94  CD2       44.9900   63.0020   23.3640 C.ar  114  TRP114     -0.0059
     95  NE1       46.9850   64.0840   23.6610 N.pl3 114  TRP114     -0.2376
     96  CE2       46.4160   62.9520   23.0600 C.ar  114  TRP114      0.0614
     97  CE3       44.1620   61.9850   22.8120 C.ar  114  TRP114     -0.0030
     98  CZ2       47.0060   61.7000   22.7220 C.ar  114  TRP114      0.0158
     99  CZ3       44.7790   60.7760   22.4140 C.ar  114  TRP114     -0.0002
    100  CH2       46.1750   60.6790   22.2290 C.ar  114  TRP114      0.0013
    101  N         59.3600   60.2410   19.7480 N.3   150  CYS150     -0.1235
    102  CA        58.6410   59.6440   18.6100 C.3   150  CYS150      0.1677
    103  C         57.9210   60.5920   17.6480 C.2   150  CYS150      0.2270
    104  O         56.9350   61.2480   17.9910 O.2   150  CYS150     -0.2867
    105  CB        57.5650   58.6510   19.0560 C.3   150  CYS150      0.0956
    106  SG        58.0130   57.6060   20.4650 S.3   150  CYS150     -0.0801
    107  N         55.2570   60.8370   14.7050 N.3   152  MET152     -0.1245
    108  CA        53.9840   60.1430   14.5260 C.3   152  MET152      0.1570
    109  C         53.6530   59.9230   13.0470 C.2   152  MET152      0.2261
    110  O         53.6140   60.8670   12.2770 O.2   152  MET152     -0.2867
    111  CB        52.8760   60.9880   15.1620 C.3   152  MET152      0.0387
    112  CG        53.0570   60.9720   16.6860 C.3   152  MET152      0.0595
    113  SD        52.9780   59.3200   17.3840 S.3   152  MET152     -0.1393
    114  CE        51.1990   59.1740   17.2520 C.3   152  MET152      0.0692
    115  N         51.0170   59.5470   11.2220 N.3   154  HIS154     -0.1241
    116  CA        50.0330   60.3870   10.5400 C.3   154  HIS154      0.1621
    117  C         50.3770   61.8990   10.4350 C.2   154  HIS154      0.2264
    118  O         49.6150   62.7040    9.9250 O.2   154  HIS154     -0.2867
    119  CB        48.6480   60.1590   11.1770 C.3   154  HIS154      0.0745
    120  CG        48.6340   60.7450   12.5640 C.ar  154  HIS154      0.0817
    121  ND1       49.1530   60.1390   13.6470 N.ar  154  HIS154     -0.2268
    122  CD2       48.1260   61.9880   12.9390 C.ar  154  HIS154      0.1154
    123  CE1       48.9780   60.9900   14.7020 C.ar  154  HIS154      0.1986
    124  NE2       48.3470   62.1240   14.2670 N.ar  154  HIS154     -0.2212
    125  N         56.2860   56.1370   15.3710 N.3   180  ALA180     -0.1231
    126  CA        55.1590   55.4580   16.0030 C.3   180  ALA180      0.1694
    127  C         53.8040   55.8550   15.4360 C.2   180  ALA180      0.2593
    128  O         53.6330   56.9030   14.8460 O.2   180  ALA180     -0.2718
    129  CB        55.1350   55.8520   17.4730 C.3   180  ALA180      0.0304
    130  N         52.8230   54.9840   15.7030 N.am  181  GLY181     -0.1942
    131  CA        51.4260   55.4010   15.5090 C.3   181  GLY181      0.2014
    132  C         51.1800   54.0750   14.7690 C.2   181  GLY181      0.2638
    133  O         51.7870   53.0690   15.0660 O.2   181  GLY181     -0.2714
    134  N         50.2380   54.1740   13.7930 N.am  182  ASP182     -0.1971
    135  CA        49.7890   53.0250   13.0140 C.3   182  ASP182      0.1709
    136  C         50.6390   52.9380   11.7340 C.2   182  ASP182      0.2293
    137  O         50.5470   53.7340   10.8160 O.2   182  ASP182     -0.2864
    138  CB        48.4210   53.6830   12.7730 C.3   182  ASP182      0.1436
    139  CG        47.6350   53.0680   11.6380 C.2   182  ASP182      0.3671
    140  OD1       47.9830   51.9820   11.1860 O.co2 182  ASP182     -0.2456
    141  OD2       46.6720   53.7000   11.2250 O.co2 182  ASP182     -0.2456
    142  N         59.1140   51.8040   14.6400 N.3   211  HIS211     -0.1241
    143  CA        58.1010   50.7520   14.7140 C.3   211  HIS211      0.1621
    144  C         57.7040   50.0980   13.3870 C.2   211  HIS211      0.2264
    145  O         57.0970   50.7210   12.5250 O.2   211  HIS211     -0.2867
    146  CB        56.7740   51.2480   15.2220 C.3   211  HIS211      0.0745
    147  CG        56.7450   51.5160   16.6870 C.ar  211  HIS211      0.0817
    148  ND1       55.9160   50.8340   17.4790 N.ar  211  HIS211     -0.2268
    149  CD2       57.3660   52.5280   17.4210 C.ar  211  HIS211      0.1154
    150  CE1       55.9800   51.4320   18.6860 C.ar  211  HIS211      0.1986
    151  NE2       56.8640   52.4630   18.6900 N.ar  211  HIS211     -0.2212
    152  N         54.8070   45.1970   13.2630 N.3   214  GLU214     -0.1245
    153  CA        53.7790   44.7420   14.2370 C.3   214  GLU214      0.1567
    154  C         52.4550   44.2660   13.6020 C.2   214  GLU214      0.2260
    155  O         52.0010   43.1650   13.8260 O.2   214  GLU214     -0.2867
    156  CB        53.5050   45.8530   15.2600 C.3   214  GLU214      0.0388
    157  CG        52.5210   45.5560   16.4070 C.3   214  GLU214      0.1160
    158  CD        52.3530   46.7470   17.3380 C.2   214  GLU214      0.3649
    159  OE1       52.3210   47.8820   16.8690 O.co2 214  GLU214     -0.2457
    160  OE2       52.2100   46.5290   18.5380 O.co2 214  GLU214     -0.2457
    161  N         59.0280   45.6880   17.4890 N.3   235  HIS235     -0.1241
    162  CA        58.3560   44.4370   17.1010 C.3   235  HIS235      0.1621
    163  C         59.0040   43.6990   15.9230 C.2   235  HIS235      0.2264
    164  O         59.6990   42.7120   16.0700 O.2   235  HIS235     -0.2867
    165  CB        56.8430   44.6230   16.8470 C.3   235  HIS235      0.0745
    166  CG        56.2020   45.5160   17.8870 C.ar  235  HIS235      0.0817
    167  ND1       55.8230   45.1180   19.1010 N.ar  235  HIS235     -0.2268
    168  CD2       55.9610   46.8890   17.7670 C.ar  235  HIS235      0.1154
    169  CE1       55.3570   46.2120   19.7620 C.ar  235  HIS235      0.1986
    170  NE2       55.4420   47.3180   18.9470 N.ar  235  HIS235     -0.2212
    171  N         47.0260   43.3520   21.5910 N.3   266  THR266     -0.1218
    172  CA        46.6980   44.0120   20.3050 C.3   266  THR266      0.1862
    173  C         46.0180   43.2370   19.1690 C.2   266  THR266      0.2287
    174  O         45.2060   43.8070   18.4530 O.2   266  THR266     -0.2866
    175  CB        47.8730   44.7610   19.6520 C.3   266  THR266      0.1770
    176  OG1       48.9600   43.8710   19.3450 O.3   266  THR266     -0.2211
    177  CG2       48.3320   45.9100   20.5630 C.3   266  THR266      0.0375
    178  N         56.0180   47.6810   26.7270 N.3   292  ASP292     -0.1225
    179  CA        55.3260   48.5400   25.7570 C.3   292  ASP292      0.1805
    180  C         54.3140   49.5720   26.3280 C.2   292  ASP292      0.2597
    181  O         54.5050   50.7800   26.2520 O.2   292  ASP292     -0.2718
    182  CB        54.7820   47.6750   24.5990 C.3   292  ASP292      0.1424
    183  CG        54.3020   48.5200   23.4410 C.2   292  ASP292      0.3668
    184  OD1       53.1520   48.3710   23.0490 O.co2 292  ASP292     -0.2456
    185  OD2       55.0750   49.3040   22.9140 O.co2 292  ASP292     -0.2456
    186  N         53.2520   49.0350   26.9400 N.am  293  ASP293     -0.1974
    187  CA        52.2920   49.8880   27.6700 C.3   293  ASP293      0.1709
    188  C         51.7100   49.2840   28.9640 C.2   293  ASP293      0.2293
    189  O         50.6930   48.6100   28.9350 O.2   293  ASP293     -0.2864
    190  CB        51.0640   50.2820   26.8360 C.3   293  ASP293      0.1436
    191  CG        51.4330   50.8870   25.5140 C.2   293  ASP293      0.3671
    192  OD1       51.5600   52.1040   25.4510 O.co2 293  ASP293     -0.2456
    193  OD2       51.5670   50.1480   24.5430 O.co2 293  ASP293     -0.2456
    194  N         48.0240   47.8000   28.9350 N.3   297  PHE297     -0.1241
    195  CA        47.8950   46.3320   28.9350 C.3   297  PHE297      0.1605
    196  C         47.7640   45.6370   30.3160 C.2   297  PHE297      0.2264
    197  O         47.9430   44.4290   30.4380 O.2   297  PHE297     -0.2867
    198  CB        48.9760   45.6090   28.1120 C.3   297  PHE297      0.0534
    199  CG        49.1150   46.2560   26.7530 C.ar  297  PHE297     -0.0203
    200  CD1       48.0000   46.5350   25.9240 C.ar  297  PHE297     -0.0042
    201  CD2       50.4160   46.5810   26.3480 C.ar  297  PHE297     -0.0042
    202  CE1       48.2000   47.1820   24.6850 C.ar  297  PHE297     -0.0003
    203  CE2       50.6050   47.2190   25.1170 C.ar  297  PHE297     -0.0003
    204  CZ        49.5050   47.5520   24.2980 C.ar  297  PHE297     -0.0000
@<TRIPOS>BOND
     1   118   117    2
     2   117   116    1
     3   116   119    1
     4   116   115    1
     5   137   136    2
     6   119   120    1
     7   140   139   ar
     8   141   139   ar
     9   139   138    1
    10   136   135    1
    11   110   109    2
    12   145   144    2
    13   120   122   ar
    14   120   121   ar
    15   138   135    1
    16   122   124   ar
    17   135   134    1
    18   109   108    1
    19   152   153    1
    20   144   143    1
    21   154   155    2
    22   154   153    1
    23   121   123   ar
    24   134   132   am
    25    29    28    1
    26   153   156    1
    27   124   123   ar
    28   108   107    1
    29   108   111    1
    30   142   143    1
    31   143   146    1
    32   132   133    2
    33   132   131    1
    34   128   127    2
    35    27    28    1
    36    27    24    1
    37   111   112    1
    38    28    30    1
    39   146   147    1
    40   156   157    1
    41   125   126    1
    42   127   130   am
    43   127   126    1
    44   131   130    1
    45   163   164    2
    46   163   162    1
    47   126   129    1
    48    23    24    1
    49    24    25    1
    50   157   158    1
    51   112   113    1
    52   147   149   ar
    53   147   148   ar
    54   165   162    1
    55   165   166    1
    56   159   158   ar
    57    25    26    2
    58   162   161    1
    59   114   113    1
    60   158   160   ar
    61   149   151   ar
    62   148   150   ar
    63   103   104    2
    64   103   102    1
    65   168   166   ar
    66   168   170   ar
    67   166   167   ar
    68    49    47    1
    69    47    48    1
    70    47    46    1
    71   174   173    2
    72   102   105    1
    73   102   101    1
    74   150   151   ar
    75    46    43    1
    76   170   169   ar
    77   105   106    1
    78   167   169   ar
    79   173   172    1
    80   176   175    1
    81    78    77    1
    82   175   172    1
    83   175   177    1
    84    86    84    1
    85   172   171    1
    86    43    42    1
    87    43    44    1
    88    42    33   am
    89    35    36    1
    90    35    32    1
    91    38    36   ar
    92    38    40   ar
    93    77    74    1
    94    85    84    1
    95    84    83    1
    96    31    32    1
    97    36    37   ar
    98    40    41   ar
    99    32    33    1
   100    44    45    2
   101    33    34    2
   102     9    10   ar
   103     9     7   ar
   104    74    73    1
   105    74    75    1
   106    87    88    1
   107    79    80    1
   108    10     8   ar
   109    37    39   ar
   110    41    39   ar
   111    83    80    1
   112    64    63    2
   113    80    81    1
   114   100    99   ar
   115   100    98   ar
   116    73    63   am
   117    75    76    2
   118    99    97   ar
   119    88    89    1
   120    88    91    1
   121     7     6   ar
   122    63    62    1
   123    98    96   ar
   124    97    94   ar
   125    89    90    2
   126   185   183   ar
   127   184   183   ar
   128    96    94   ar
   129    96    95    1
   130    58    56   ar
   131    58    60   ar
   132    56    55   ar
   133     8     6   ar
   134    94    92    1
   135   183   182    1
   136    95    93    1
   137    81    82    2
   138     6     5    1
   139    92    91    1
   140    92    93    1
   141    54    55    1
   142    54    51    1
   143    62    61    1
   144    62    65    1
   145    60    59   ar
   146    55    57   ar
   147   204   202   ar
   148   204   203   ar
   149   193   191   ar
   150   182   179    1
   151   202   200   ar
   152    17    16   ar
   153    57    59   ar
   154     5     2    1
   155   203   201   ar
   156    51    50    1
   157    51    52    1
   158    65    66    1
   159    67    66   ar
   160    67    69   ar
   161    52    53    2
   162    18    16   ar
   163   192   191   ar
   164    66    68   ar
   165   191   190    1
   166    69    71   ar
   167    16    15    1
   168   179   180    1
   169   179   178    1
   170   200   199   ar
   171     2     1    1
   172     2     3    1
   173    68    70   ar
   174    71    70   ar
   175    71    72    1
   176   181   180    2
   177   180   186   am
   178   201   199   ar
   179   199   198    1
   180   190   187    1
   181   186   187    1
   182    15    12    1
   183     3     4    2
   184   187   188    1
   185    14    13    2
   186    11    12    1
   187    13    12    1
   188    13    19   am
   189   198   195    1
   190    19    20    1
   191    20    21    1
   192   189   188    2
   193   194   195    1
   194   195   196    1
   195    21    22    2
   196   196   197    2
