@<TRIPOS>MOLECULE
tmp/2e21A00.pdb
 193 186 0 0 0
SMALL
GASTEIGER

@<TRIPOS>ATOM
      1  N        -69.5830   -1.8630   36.7110 N.3    30  ALA30      -0.1231
      2  CA       -68.3540   -1.5660   37.4200 C.3    30  ALA30       0.1694
      3  C        -67.9180   -0.2730   36.7440 C.2    30  ALA30       0.2592
      4  O        -67.2040   -0.2880   35.7490 O.2    30  ALA30      -0.2718
      5  CB       -67.3460   -2.6870   37.1730 C.3    30  ALA30       0.0304
      6  N        -68.3620    0.8470   37.2900 N.am   31  PHE31      -0.1962
      7  CA       -68.0750    2.1430   36.6990 C.3    31  PHE31       0.1771
      8  C        -66.8260    2.8730   37.1720 C.2    31  PHE31       0.2620
      9  O        -66.8180    3.4810   38.2410 O.2    31  PHE31      -0.2715
     10  CB       -69.2850    3.0660   36.8850 C.3    31  PHE31       0.0574
     11  CG       -69.2580    4.2650   35.9980 C.ar   31  PHE31      -0.0200
     12  CD1      -69.5090    4.1360   34.6430 C.ar   31  PHE31      -0.0042
     13  CD2      -68.9280    5.5130   36.5080 C.ar   31  PHE31      -0.0042
     14  CE1      -69.4240    5.2390   33.7970 C.ar   31  PHE31      -0.0003
     15  CE2      -68.8370    6.6230   35.6810 C.ar   31  PHE31      -0.0003
     16  CZ       -69.0870    6.4920   34.3180 C.ar   31  PHE31      -0.0000
     17  N        -65.7840    2.8460   36.3500 N.am   32  SER32      -0.1950
     18  CA       -64.5450    3.5260   36.6870 C.3    32  SER32       0.1924
     19  C        -64.6590    5.0250   36.4150 C.2    32  SER32       0.2314
     20  O        -64.1970    5.8440   37.2040 O.2    32  SER32      -0.2863
     21  CB       -63.3860    2.9670   35.8600 C.3    32  SER32       0.2116
     22  OG       -63.3210    3.5940   34.5900 O.3    32  SER32      -0.2180
     23  N        -64.0910    3.3700   28.5130 N.3    36  ASP36      -0.1225
     24  CA       -64.6900    2.0570   28.4990 C.3    36  ASP36       0.1805
     25  C        -65.9840    2.0660   29.2980 C.2    36  ASP36       0.2598
     26  O        -67.0470    1.7030   28.7850 O.2    36  ASP36      -0.2718
     27  CB       -63.7360    1.0450   29.1110 C.3    36  ASP36       0.1424
     28  CG       -62.3430    1.1860   28.5850 C.2    36  ASP36       0.3668
     29  OD1      -62.1520    1.9530   27.6160 O.co2  36  ASP36      -0.2456
     30  OD2      -61.4360    0.5230   29.1360 O.co2  36  ASP36      -0.2456
     31  N        -65.8890    2.4780   30.5590 N.am   37  SER37      -0.1952
     32  CA       -67.0510    2.5200   31.4280 C.3    37  SER37       0.1924
     33  C        -68.0980    3.4720   30.9020 C.2    37  SER37       0.2314
     34  O        -69.2840    3.1720   30.9280 O.2    37  SER37      -0.2863
     35  CB       -66.6500    2.9350   32.8330 C.3    37  SER37       0.2116
     36  OG       -65.8850    1.9080   33.4270 O.3    37  SER37      -0.2180
     37  N        -71.4900    1.5110   39.8860 N.3    59  ALA59      -0.1231
     38  CA       -70.7950    1.1150   41.0990 C.3    59  ALA59       0.1694
     39  C        -69.3480    1.5530   40.9340 C.2    59  ALA59       0.2592
     40  O        -68.5400    0.8560   40.3250 O.2    59  ALA59      -0.2718
     41  CB       -70.8770   -0.3940   41.2970 C.3    59  ALA59       0.0304
     42  N        -69.0370    2.7330   41.4550 N.am   60  HIS60      -0.1962
     43  CA       -67.6880    3.2700   41.3730 C.3    60  HIS60       0.1787
     44  C        -66.9530    2.9770   42.6590 C.2    60  HIS60       0.2620
     45  O        -67.5070    3.0940   43.7480 O.2    60  HIS60      -0.2715
     46  CB       -67.7160    4.7830   41.1510 C.3    60  HIS60       0.0785
     47  CG       -66.3760    5.4410   41.2980 C.ar   60  HIS60       0.0821
     48  ND1      -65.3530    5.2540   40.3960 N.ar   60  HIS60      -0.2267
     49  CD2      -65.8940    6.2780   42.2470 C.ar   60  HIS60       0.1154
     50  CE1      -64.2960    5.9490   40.7830 C.ar   60  HIS60       0.1986
     51  NE2      -64.5970    6.5780   41.9030 N.ar   60  HIS60      -0.2212
     52  N        -65.6990    2.5820   42.5320 N.am   61  PHE61      -0.1974
     53  CA       -64.9070    2.3040   43.7050 C.3    61  PHE61       0.1639
     54  C        -63.7500    3.2760   43.7600 C.2    61  PHE61       0.2290
     55  O        -62.9260    3.3340   42.8470 O.2    61  PHE61      -0.2864
     56  CB       -64.3710    0.8840   43.6800 C.3    61  PHE61       0.0560
     57  CG       -63.6070    0.5190   44.9140 C.ar   61  PHE61      -0.0200
     58  CD1      -64.2430    0.4790   46.1510 C.ar   61  PHE61      -0.0042
     59  CD2      -62.2520    0.2190   44.8460 C.ar   61  PHE61      -0.0042
     60  CE1      -63.5390    0.1430   47.3080 C.ar   61  PHE61      -0.0003
     61  CE2      -61.5380   -0.1160   45.9930 C.ar   61  PHE61      -0.0003
     62  CZ       -62.1840   -0.1560   47.2270 C.ar   61  PHE61      -0.0000
     63  N        -60.4120    4.0710   44.9720 N.3    63  HIS63      -0.1241
     64  CA       -59.2520    3.3530   45.4880 C.3    63  HIS63       0.1621
     65  C        -58.5260    4.1610   46.5500 C.2    63  HIS63       0.2264
     66  O        -57.9320    3.6080   47.4780 O.2    63  HIS63      -0.2867
     67  CB       -58.2690    3.0460   44.3530 C.3    63  HIS63       0.0745
     68  CG       -58.8740    2.2890   43.2090 C.ar   63  HIS63       0.0817
     69  ND1      -59.5190    1.0820   43.3680 N.ar   63  HIS63      -0.2268
     70  CD2      -58.9120    2.5670   41.8820 C.ar   63  HIS63       0.1154
     71  CE1      -59.9310    0.6460   42.1880 C.ar   63  HIS63       0.1986
     72  NE2      -59.5750    1.5280   41.2720 N.ar   63  HIS63      -0.2212
     73  N        -52.4670   -3.2510   43.2030 N.3   106  GLU106     -0.1245
     74  CA       -53.4050   -3.7440   42.2110 C.3   106  GLU106      0.1567
     75  C        -54.1750   -4.9070   42.8170 C.2   106  GLU106      0.2260
     76  O        -55.3870   -4.8230   43.0000 O.2   106  GLU106     -0.2867
     77  CB       -52.6580   -4.2010   40.9560 C.3   106  GLU106      0.0388
     78  CG       -53.5690   -4.6450   39.8170 C.3   106  GLU106      0.1160
     79  CD       -52.8120   -4.9010   38.5270 C.2   106  GLU106      0.3649
     80  OE1      -53.4590   -5.2420   37.5130 O.co2 106  GLU106     -0.2457
     81  OE2      -51.5690   -4.7610   38.5280 O.co2 106  GLU106     -0.2457
     82  N        -57.9880   -4.8030   43.2780 N.3   110  ARG110     -0.1245
     83  CA       -58.8000   -5.7670   42.5650 C.3   110  ARG110      0.1563
     84  C        -59.7030   -6.4150   43.6050 C.2   110  ARG110      0.2260
     85  O        -60.9270   -6.3770   43.4940 O.2   110  ARG110     -0.2867
     86  CB       -57.9020   -6.8240   41.9150 C.3   110  ARG110      0.0307
     87  CG       -58.6290   -7.8730   41.0720 C.3   110  ARG110      0.0489
     88  CD       -59.2650   -7.2550   39.8300 C.3   110  ARG110      0.2205
     89  NE       -59.8770   -8.2530   38.9530 N.pl3 110  ARG110     -0.0865
     90  CZ       -59.2000   -9.1600   38.2520 C.cat 110  ARG110      0.5346
     91  NH1      -57.8720   -9.2070   38.3200 N.pl3 110  ARG110      0.1354
     92  NH2      -59.8510  -10.0210   37.4750 N.pl3 110  ARG110      0.1354
     93  N        -62.1820   -3.9920   45.2310 N.3   113  ARG113     -0.1231
     94  CA       -63.1640   -3.5720   44.2440 C.3   113  ARG113      0.1694
     95  C        -64.2030   -4.6700   44.0640 C.2   113  ARG113      0.2592
     96  O        -65.3750   -4.4880   44.3980 O.2   113  ARG113     -0.2718
     97  CB       -62.4900   -3.2790   42.9050 C.3   113  ARG113      0.0321
     98  CG       -63.4040   -2.6170   41.8930 C.3   113  ARG113      0.0489
     99  CD       -62.8930   -2.8620   40.5000 C.3   113  ARG113      0.2205
    100  NE       -61.5130   -2.4250   40.3600 N.pl3 113  ARG113     -0.0865
    101  CZ       -60.6330   -3.0030   39.5510 C.cat 113  ARG113      0.5346
    102  NH1      -60.9930   -4.0450   38.8140 N.pl3 113  ARG113      0.1354
    103  NH2      -59.3950   -2.5400   39.4760 N.pl3 113  ARG113      0.1354
    104  N        -63.7670   -5.8160   43.5460 N.am  114  TYR114     -0.1976
    105  CA       -64.6770   -6.9300   43.3240 C.3   114  TYR114      0.1639
    106  C        -65.3530   -7.3650   44.6130 C.2   114  TYR114      0.2290
    107  O        -66.4570   -7.9060   44.5880 O.2   114  TYR114     -0.2864
    108  CB       -63.9480   -8.1010   42.6560 C.3   114  TYR114      0.0560
    109  CG       -63.6640   -7.8500   41.1840 C.ar  114  TYR114     -0.0198
    110  CD1      -62.7030   -6.9160   40.7820 C.ar  114  TYR114     -0.0009
    111  CD2      -64.3870   -8.5140   40.1890 C.ar  114  TYR114     -0.0009
    112  CE1      -62.4720   -6.6450   39.4240 C.ar  114  TYR114      0.0417
    113  CE2      -64.1600   -8.2520   38.8260 C.ar  114  TYR114      0.0417
    114  CZ       -63.2040   -7.3170   38.4540 C.ar  114  TYR114      0.1957
    115  OH       -62.9830   -7.0500   37.1190 O.3   114  TYR114     -0.2866
    116  N        -67.9440   -4.7560   44.8390 N.3   117  LEU117     -0.1245
    117  CA       -68.9380   -5.0080   43.8080 C.3   117  LEU117      0.1561
    118  C        -69.7890   -6.2060   44.2160 C.2   117  LEU117      0.2260
    119  O        -71.0170   -6.1190   44.2290 O.2   117  LEU117     -0.2867
    120  CB       -68.2600   -5.2830   42.4610 C.3   117  LEU117      0.0270
    121  CG       -67.4180   -4.1550   41.8590 C.3   117  LEU117      0.0019
    122  CD1      -66.6540   -4.6540   40.6470 C.3   117  LEU117      0.0001
    123  CD2      -68.3240   -2.9980   41.4920 C.3   117  LEU117      0.0001
    124  N        -68.7530   -5.4120   33.1840 N.3   131  THR131     -0.1203
    125  CA       -67.4770   -4.7370   33.1330 C.3   131  THR131      0.1994
    126  C        -67.2410   -4.1270   31.7600 C.2   131  THR131      0.2618
    127  O        -67.8900   -4.4930   30.7940 O.2   131  THR131     -0.2717
    128  CB       -66.3690   -5.7420   33.4380 C.3   131  THR131      0.1784
    129  OG1      -66.4050   -6.0690   34.8310 O.3   131  THR131     -0.2211
    130  CG2      -65.0420   -5.1810   33.0960 C.3   131  THR131      0.0376
    131  N        -66.3070   -3.1900   31.6820 N.am  132  ALA132     -0.1965
    132  CA       -65.9770   -2.5600   30.4200 C.3   132  ALA132      0.1728
    133  C        -64.7820   -3.2500   29.7700 C.2   132  ALA132      0.2616
    134  O        -64.1350   -2.6740   28.8890 O.2   132  ALA132     -0.2715
    135  CB       -65.6920   -1.0760   30.6290 C.3   132  ALA132      0.0334
    136  N        -64.4880   -4.4780   30.2060 N.am  133  HIS133     -0.1973
    137  CA       -63.3780   -5.2550   29.6350 C.3   133  HIS133      0.1656
    138  C        -63.6350   -5.3960   28.1440 C.2   133  HIS133      0.2291
    139  O        -64.7100   -5.8440   27.7450 O.2   133  HIS133     -0.2864
    140  CB       -63.3140   -6.6580   30.2390 C.3   133  HIS133      0.0771
    141  CG       -62.8470   -6.6860   31.6580 C.ar  133  HIS133      0.0820
    142  ND1      -63.4270   -7.4940   32.6170 N.ar  133  HIS133     -0.2267
    143  CD2      -61.8790   -5.9850   32.2930 C.ar  133  HIS133      0.1154
    144  CE1      -62.8400   -7.2830   33.7780 C.ar  133  HIS133      0.1986
    145  NE2      -61.8980   -6.3700   33.6090 N.ar  133  HIS133     -0.2212
    146  N        -58.2010   -5.3610   26.0010 N.3   137  ASP137     -0.1239
    147  CA       -57.8920   -5.8630   27.3220 C.3   137  ASP137      0.1674
    148  C        -57.5590   -7.3330   27.1560 C.2   137  ASP137      0.2266
    149  O        -56.5610   -7.8170   27.6850 O.2   137  ASP137     -0.2867
    150  CB       -59.0830   -5.7410   28.2760 C.3   137  ASP137      0.1410
    151  CG       -59.3590   -4.3170   28.7050 C.2   137  ASP137      0.3668
    152  OD1      -58.4150   -3.5100   28.8310 O.co2 137  ASP137     -0.2456
    153  OD2      -60.5400   -4.0080   28.9480 O.co2 137  ASP137     -0.2456
    154  N        -54.2430   -9.2720   28.2330 N.3   141  THR141     -0.1218
    155  CA       -54.2670  -10.3740   29.1800 C.3   141  THR141      0.1862
    156  C        -53.6400  -11.6230   28.5580 C.2   141  THR141      0.2287
    157  O        -52.8490  -12.3270   29.1870 O.2   141  THR141     -0.2866
    158  CB       -55.7130  -10.7090   29.5490 C.3   141  THR141      0.1770
    159  OG1      -56.3460   -9.5390   30.0820 O.3   141  THR141     -0.2211
    160  CG2      -55.7630  -11.8490   30.5580 C.3   141  THR141      0.0375
    161  N        -59.8660  -13.9680   29.8180 N.3   158  PHE158     -0.1241
    162  CA       -61.1820  -14.0400   30.4210 C.3   158  PHE158      0.1605
    163  C        -62.1930  -14.3610   29.3390 C.2   158  PHE158      0.2264
    164  O        -61.9260  -14.2220   28.1450 O.2   158  PHE158     -0.2867
    165  CB       -61.5400  -12.7170   31.1180 C.3   158  PHE158      0.0534
    166  CG       -61.2950  -11.4940   30.2740 C.ar  158  PHE158     -0.0203
    167  CD1      -62.2700  -11.0210   29.4170 C.ar  158  PHE158     -0.0042
    168  CD2      -60.0590  -10.8510   30.3040 C.ar  158  PHE158     -0.0042
    169  CE1      -62.0190   -9.9280   28.5930 C.ar  158  PHE158     -0.0003
    170  CE2      -59.7920   -9.7580   29.4850 C.ar  158  PHE158     -0.0003
    171  CZ       -60.7660   -9.2900   28.6300 C.ar  158  PHE158     -0.0000
    172  N        -69.0330   -9.2230   30.2260 N.3   167  ARG167     -0.1245
    173  CA       -68.1880   -8.2400   29.5730 C.3   167  ARG167      0.1563
    174  C        -68.7120   -7.9640   28.1530 C.2   167  ARG167      0.2260
    175  O        -68.2390   -8.5540   27.1760 O.2   167  ARG167     -0.2867
    176  CB       -66.7450   -8.7550   29.5460 C.3   167  ARG167      0.0307
    177  CG       -66.2560   -9.2870   30.9060 C.3   167  ARG167      0.0489
    178  CD       -64.8590   -9.8830   30.8030 C.3   167  ARG167      0.2205
    179  NE       -64.6980  -11.0660   31.6500 N.pl3 167  ARG167     -0.0865
    180  CZ       -64.3800  -11.0370   32.9420 C.cat 167  ARG167      0.5346
    181  NH1      -64.1700   -9.8810   33.5530 N.pl3 167  ARG167      0.1354
    182  NH2      -64.3010  -12.1650   33.6340 N.pl3 167  ARG167      0.1354
    183  N        -49.4070   -5.2610   32.5270 N.3   201  ARG201     -0.1245
    184  CA       -50.5210   -4.9650   31.6400 C.3   201  ARG201      0.1563
    185  C        -50.2210   -3.6620   30.9040 C.2   201  ARG201      0.2260
    186  O        -50.1970   -3.6210   29.6790 O.2   201  ARG201     -0.2867
    187  CB       -51.8120   -4.8280   32.4440 C.3   201  ARG201      0.0307
    188  CG       -53.0880   -5.0230   31.6440 C.3   201  ARG201      0.0489
    189  CD       -53.5820   -6.4580   31.7610 C.3   201  ARG201      0.2205
    190  NE       -53.9330   -6.7890   33.1390 N.pl3 201  ARG201     -0.0865
    191  CZ       -54.2010   -8.0180   33.5730 C.cat 201  ARG201      0.5346
    192  NH1      -54.1610   -9.0440   32.7350 N.pl3 201  ARG201      0.1354
    193  NH2      -54.4950   -8.2230   34.8520 N.pl3 201  ARG201      0.1354
@<TRIPOS>BOND
     1   146   147    1
     2   148   147    1
     3   148   149    2
     4   175   174    2
     5   147   150    1
     6    29    28   ar
     7   139   138    2
     8   138   137    1
     9   164   163    2
    10   174   173    1
    11   154   155    1
    12   150   151    1
    13    24    23    1
    14    24    27    1
    15    24    25    1
    16   156   155    1
    17   156   157    2
    18    28    27    1
    19    28    30   ar
    20   169   171   ar
    21   169   167   ar
    22   171   170   ar
    23   151   152   ar
    24   151   153   ar
    25    26    25    2
    26   134   133    2
    27   155   158    1
    28    25    31   am
    29   163   162    1
    30   167   166   ar
    31   170   168   ar
    32   176   173    1
    33   176   177    1
    34   158   159    1
    35   158   160    1
    36   173   172    1
    37   137   136    1
    38   137   140    1
    39   186   185    2
    40   133   136   am
    41   133   132    1
    42   161   162    1
    43   140   141    1
    44   166   168   ar
    45   166   165    1
    46   132   135    1
    47   132   131    1
    48   162   165    1
    49    31    32    1
    50   127   126    2
    51   178   177    1
    52   178   179    1
    53    33    34    2
    54    33    32    1
    55   185   184    1
    56    32    35    1
    57   184   187    1
    58   184   183    1
    59   188   189    1
    60   188   187    1
    61   179   180    2
    62   141   143   ar
    63   141   142   ar
    64   131   126   am
    65   126   125    1
    66   189   190    1
    67   143   145   ar
    68   142   144   ar
    69   192   191    1
    70    35    36    1
    71   180   181    1
    72   180   182    1
    73   130   128    1
    74   125   124    1
    75   125   128    1
    76   190   191    2
    77   128   129    1
    78   191   193    1
    79   145   144   ar
    80    14    16   ar
    81    14    12   ar
    82    16    15   ar
    83    22    21    1
    84    12    11   ar
    85    15    13   ar
    86     4     3    2
    87    21    18    1
    88    11    13   ar
    89    11    10    1
    90    17    18    1
    91    17     8   am
    92    19    18    1
    93    19    20    2
    94     7    10    1
    95     7     8    1
    96     7     6    1
    97     1     2    1
    98     3     6   am
    99     3     2    1
   100   115   114    1
   101     8     9    2
   102     5     2    1
   103    92    90    1
   104    80    79   ar
   105    90    91    1
   106    90    89    2
   107   114   113   ar
   108   114   112   ar
   109    79    81   ar
   110    79    78    1
   111   102   101    1
   112   113   111   ar
   113    89    88    1
   114   112   110   ar
   115   103   101    1
   116   101   100    2
   117    78    77    1
   118    88    87    1
   119    37    38    1
   120   111   109   ar
   121    40    39    2
   122   100    99    1
   123    48    50   ar
   124    48    47   ar
   125    99    98    1
   126   122   121    1
   127   110   109   ar
   128    50    51   ar
   129    39    38    1
   130    39    42   am
   131    77    74    1
   132    87    86    1
   133    38    41    1
   134    46    47    1
   135    46    43    1
   136   109   108    1
   137    72    70   ar
   138    72    71   ar
   139    47    49   ar
   140    43    42    1
   141    43    44    1
   142   123   121    1
   143   121   120    1
   144    70    68   ar
   145    98    97    1
   146    51    49   ar
   147    86    83    1
   148    71    69   ar
   149    74    75    1
   150    74    73    1
   151   120   117    1
   152    52    44   am
   153    52    53    1
   154    83    82    1
   155    83    84    1
   156   108   105    1
   157    44    45    2
   158    75    76    2
   159    55    54    2
   160    97    94    1
   161    68    69   ar
   162    68    67    1
   163   105   104    1
   164   105   106    1
   165    85    84    2
   166   104    95   am
   167    56    53    1
   168    56    57    1
   169    53    54    1
   170   117   118    1
   171   117   116    1
   172    95    94    1
   173    95    96    2
   174   118   119    2
   175    94    93    1
   176    67    64    1
   177   107   106    2
   178    59    57   ar
   179    59    61   ar
   180    57    58   ar
   181    63    64    1
   182    64    65    1
   183    61    62   ar
   184    58    60   ar
   185    65    66    2
   186    62    60   ar
