@<TRIPOS>MOLECULE
tmp/2e22A00.pdb
 134 130 0 0 0
SMALL
GASTEIGER

@<TRIPOS>ATOM
      1  N         17.2920   63.5110    0.2400 N.3   121  ASN121     -0.1240
      2  CA        18.0960   62.7030    1.1520 C.3   121  ASN121      0.1653
      3  C         18.3100   61.3310    0.5130 C.2   121  ASN121      0.2266
      4  O         17.3470   60.6160    0.2240 O.2   121  ASN121     -0.2867
      5  CB        17.3630   62.5610    2.4880 C.3   121  ASN121      0.1155
      6  CG        18.1680   61.8050    3.5240 C.2   121  ASN121      0.2627
      7  OD1       17.7380   61.6550    4.6670 O.2   121  ASN121     -0.2716
      8  ND2       19.3420   61.3250    3.1320 N.am  121  ASN121     -0.0877
      9  N         19.1910   58.4940    1.6500 N.3   123  TRP123     -0.1227
     10  CA        18.6210   57.3780    2.3830 C.3   123  TRP123      0.1737
     11  C         17.2260   57.0140    1.8850 C.2   123  TRP123      0.2595
     12  O         16.9180   55.8400    1.6910 O.2   123  TRP123     -0.2718
     13  CB        18.5580   57.7000    3.8760 C.3   123  TRP123      0.0564
     14  CG        18.2390   56.5030    4.7020 C.ar  123  TRP123      0.0003
     15  CD1       19.1180   55.5600    5.1540 C.ar  123  TRP123      0.0946
     16  CD2       16.9380   56.0690    5.1100 C.ar  123  TRP123      0.0152
     17  NE1       18.4430   54.5640    5.8170 N.ar  123  TRP123     -0.2442
     18  CE2       17.1030   54.8510    5.8050 C.ar  123  TRP123      0.0810
     19  CE3       15.6470   56.5920    4.9550 C.ar  123  TRP123      0.0012
     20  CZ2       16.0240   54.1450    6.3430 C.ar  123  TRP123      0.0191
     21  CZ3       14.5720   55.8910    5.4900 C.ar  123  TRP123      0.0001
     22  CH2       14.7690   54.6790    6.1770 C.ar  123  TRP123      0.0015
     23  N         16.3870   58.0240    1.6800 N.am  124  HIS124     -0.1975
     24  CA        15.0200   57.8100    1.2150 C.3   124  HIS124      0.1656
     25  C         14.9160   57.1550   -0.1600 C.2   124  HIS124      0.2291
     26  O         14.1470   56.2060   -0.3480 O.2   124  HIS124     -0.2864
     27  CB        14.2700   59.1400    1.2060 C.3   124  HIS124      0.0771
     28  CG        13.8670   59.6090    2.5680 C.ar  124  HIS124      0.0820
     29  ND1       13.8610   60.9390    2.9270 N.ar  124  HIS124     -0.2267
     30  CD2       13.4420   58.9230    3.6560 C.ar  124  HIS124      0.1154
     31  CE1       13.4520   61.0530    4.1790 C.ar  124  HIS124      0.1986
     32  NE2       13.1910   59.8440    4.6440 N.ar  124  HIS124     -0.2212
     33  N         23.2710   50.6880    7.5570 N.3   169  ASN169     -0.1240
     34  CA        23.0870   50.9550    6.1380 C.3   169  ASN169      0.1653
     35  C         23.3570   49.7220    5.2780 C.2   169  ASN169      0.2266
     36  O         22.5820   49.4230    4.3660 O.2   169  ASN169     -0.2867
     37  CB        23.9700   52.1260    5.6960 C.3   169  ASN169      0.1155
     38  CG        23.6100   53.4270    6.4030 C.2   169  ASN169      0.2627
     39  OD1       22.4370   53.7900    6.5070 O.2   169  ASN169     -0.2716
     40  ND2       24.6210   54.1360    6.8870 N.am  169  ASN169     -0.0877
     41  N         20.5650   47.4050    5.6360 N.3   172  TRP172     -0.1241
     42  CA        19.4040   47.8870    4.9000 C.3   172  TRP172      0.1605
     43  C         19.4970   47.5690    3.4170 C.2   172  TRP172      0.2264
     44  O         18.4960   47.2120    2.7980 O.2   172  TRP172     -0.2867
     45  CB        19.2160   49.3950    5.0840 C.3   172  TRP172      0.0550
     46  CG        18.4520   49.7610    6.3250 C.ar  172  TRP172      0.0003
     47  CD1       17.3170   49.1630    6.7950 C.ar  172  TRP172      0.0946
     48  CD2       18.7380   50.8420    7.2250 C.ar  172  TRP172      0.0152
     49  NE1       16.8780   49.8030    7.9310 N.ar  172  TRP172     -0.2442
     50  CE2       17.7300   50.8380    8.2170 C.ar  172  TRP172      0.0810
     51  CE3       19.7500   51.8160    7.2890 C.ar  172  TRP172      0.0012
     52  CZ2       17.6990   51.7710    9.2630 C.ar  172  TRP172      0.0191
     53  CZ3       19.7210   52.7450    8.3320 C.ar  172  TRP172      0.0001
     54  CH2       18.6990   52.7130    9.3040 C.ar  172  TRP172      0.0015
     55  N         20.5170   53.1250   15.6730 N.3   230  TYR230     -0.1241
     56  CA        20.8630   52.3830   14.4640 C.3   230  TYR230      0.1605
     57  C         21.0070   50.9060   14.8210 C.2   230  TYR230      0.2264
     58  O         20.7720   50.0320   13.9870 O.2   230  TYR230     -0.2867
     59  CB        22.1740   52.8990   13.8590 C.3   230  TYR230      0.0534
     60  CG        22.0420   54.1970   13.0900 C.ar  230  TYR230     -0.0201
     61  CD1       21.3800   54.2410   11.8600 C.ar  230  TYR230     -0.0009
     62  CD2       22.5820   55.3830   13.5880 C.ar  230  TYR230     -0.0009
     63  CE1       21.2610   55.4410   11.1420 C.ar  230  TYR230      0.0417
     64  CE2       22.4670   56.5880   12.8800 C.ar  230  TYR230      0.0417
     65  CZ        21.8070   56.6110   11.6610 C.ar  230  TYR230      0.1957
     66  OH        21.6860   57.8020   10.9780 O.3   230  TYR230     -0.2866
     67  N         17.7910   49.0080   14.4120 N.3   233  SER233     -0.1217
     68  CA        17.5610   48.7310   13.0080 C.3   233  SER233      0.1889
     69  C         18.4130   47.5760   12.5040 C.2   233  SER233      0.2288
     70  O         17.9180   46.7290   11.7600 O.2   233  SER233     -0.2866
     71  CB        17.8270   49.9830   12.1780 C.3   233  SER233      0.2089
     72  OG        16.9700   51.0270   12.5990 O.3   233  SER233     -0.2183
     73  N         20.3790   60.4230   18.4290 N.3   284  ARG284     -0.1231
     74  CA        19.4540   61.5050   18.0990 C.3   284  ARG284      0.1694
     75  C         18.0020   61.0780   18.0400 C.2   284  ARG284      0.2591
     76  O         17.1140   61.9150   17.9400 O.2   284  ARG284     -0.2718
     77  CB        19.8450   62.1730   16.7700 C.3   284  ARG284      0.0321
     78  CG        19.5200   61.3890   15.5050 C.3   284  ARG284      0.0489
     79  CD        19.8420   62.2340   14.2660 C.3   284  ARG284      0.2205
     80  NE        19.2760   61.6920   13.0290 N.pl3 284  ARG284     -0.0865
     81  CZ        19.8040   60.7000   12.3120 C.cat 284  ARG284      0.5346
     82  NH1       20.9340   60.1140   12.6950 N.pl3 284  ARG284      0.1354
     83  NH2       19.1960   60.2900   11.2020 N.pl3 284  ARG284      0.1354
     84  N         17.7550   59.7780   18.1310 N.am  285  GLU285     -0.1979
     85  CA        16.3950   59.2780   18.0570 C.3   285  GLU285      0.1602
     86  C         15.5220   59.6050   19.2510 C.2   285  GLU285      0.2287
     87  O         14.2970   59.4420   19.1900 O.2   285  GLU285     -0.2864
     88  CB        16.4130   57.7750   17.8020 C.3   285  GLU285      0.0415
     89  CG        16.8400   57.4520   16.3870 C.3   285  GLU285      0.1163
     90  CD        16.8610   55.9760   16.1100 C.2   285  GLU285      0.3649
     91  OE1       15.9270   55.2760   16.5610 O.co2 285  GLU285     -0.2457
     92  OE2       17.8050   55.5190   15.4320 O.co2 285  GLU285     -0.2457
     93  N         12.4750   61.7590   18.6690 N.3   288  ARG288     -0.1245
     94  CA        11.3450   61.2750   17.8770 C.3   288  ARG288      0.1563
     95  C         10.1790   60.8600   18.7610 C.2   288  ARG288      0.2260
     96  O         10.2850   59.9280   19.5690 O.2   288  ARG288     -0.2867
     97  CB        11.7900   60.1100   16.9970 C.3   288  ARG288      0.0307
     98  CG        12.8930   60.5170   16.0390 C.3   288  ARG288      0.0489
     99  CD        13.4630   59.3400   15.2940 C.3   288  ARG288      0.2205
    100  NE        14.4010   59.7890   14.2780 N.pl3 288  ARG288     -0.0865
    101  CZ        15.0980   58.9750   13.4940 C.cat 288  ARG288      0.5346
    102  NH1       14.9590   57.6560   13.6130 N.pl3 288  ARG288      0.1354
    103  NH2       15.9340   59.4820   12.5930 N.pl3 288  ARG288      0.1354
    104  N          7.5020   59.3620   17.9770 N.3   290  TYR290     -0.1241
    105  CA         6.9990   58.0240   17.6990 C.3   290  TYR290      0.1605
    106  C          7.9290   56.9190   18.1740 C.2   290  TYR290      0.2264
    107  O          7.5750   55.7410   18.1010 O.2   290  TYR290     -0.2867
    108  CB         6.7260   57.8450   16.2020 C.3   290  TYR290      0.0534
    109  CG         7.9090   58.1490   15.3210 C.ar  290  TYR290     -0.0201
    110  CD1        8.1520   59.4420   14.8670 C.ar  290  TYR290     -0.0009
    111  CD2        8.7890   57.1410   14.9400 C.ar  290  TYR290     -0.0009
    112  CE1        9.2440   59.7230   14.0510 C.ar  290  TYR290      0.0417
    113  CE2        9.8850   57.4100   14.1280 C.ar  290  TYR290      0.0417
    114  CZ        10.1040   58.7000   13.6860 C.ar  290  TYR290      0.1957
    115  OH        11.1770   58.9600   12.8640 O.3   290  TYR290     -0.2866
    116  N         20.0790   66.6480   10.4090 N.3   399  ASN399     -0.1240
    117  CA        18.7540   66.6880    9.7920 C.3   399  ASN399      0.1653
    118  C         17.6940   67.3040   10.6980 C.2   399  ASN399      0.2266
    119  O         16.5600   66.8310   10.7510 O.2   399  ASN399     -0.2867
    120  CB        18.3230   65.2810    9.3750 C.3   399  ASN399      0.1155
    121  CG        19.3190   64.6280    8.4450 C.2   399  ASN399      0.2627
    122  OD1       19.8280   65.2600    7.5160 O.2   399  ASN399     -0.2716
    123  ND2       19.5980   63.3500    8.6800 N.am  399  ASN399     -0.0877
    124  N         11.2910   68.6180   11.7480 N.3   587  ARG587     -0.1245
    125  CA        10.9650   67.9910   10.4590 C.3   587  ARG587      0.1563
    126  C          9.4520   68.0250   10.2290 C.2   587  ARG587      0.2260
    127  O          8.6630   68.1250   11.1800 O.2   587  ARG587     -0.2867
    128  CB        11.4350   66.5360   10.4510 C.3   587  ARG587      0.0307
    129  CG        12.9540   66.4000   10.3320 C.3   587  ARG587      0.0489
    130  CD        13.4140   64.9470   10.2010 C.3   587  ARG587      0.2205
    131  NE        12.8350   64.0680   11.2260 N.pl3 587  ARG587     -0.0865
    132  CZ        12.9350   62.7320   11.2100 C.cat 587  ARG587      0.5346
    133  NH1       13.5890   62.1010   10.2250 N.pl3 587  ARG587      0.1354
    134  NH2       12.4070   61.9310   12.1450 N.pl3 587  ARG587      0.1354
@<TRIPOS>BOND
     1    26    25    2
     2    25    24    1
     3     4     3    2
     4     1     2    1
     5     3     2    1
     6     2     5    1
     7    27    24    1
     8    27    28    1
     9    24    23    1
    10     9    10    1
    11    23    11   am
    12    12    11    2
    13    11    10    1
    14    10    13    1
    15     5     6    1
    16    28    29   ar
    17    28    30   ar
    18    44    43    2
    19    29    31   ar
    20     8     6   am
    21    43    42    1
    22     6     7    2
    23    30    32   ar
    24    13    14    1
    25    31    32   ar
    26    36    35    2
    27    14    16   ar
    28    14    15   ar
    29    42    45    1
    30    42    41    1
    31    19    16   ar
    32    19    21   ar
    33    45    46    1
    34    16    18   ar
    35    15    17   ar
    36    35    34    1
    37    21    22   ar
    38    37    34    1
    39    37    38    1
    40    18    17   ar
    41    18    20   ar
    42    34    33    1
    43    22    20   ar
    44    46    47   ar
    45    46    48   ar
    46    38    39    2
    47    38    40   am
    48    47    49   ar
    49    48    51   ar
    50    48    50   ar
    51    51    53   ar
    52   122   121    2
    53    49    50   ar
    54    50    52   ar
    55    53    54   ar
    56   121   123   am
    57   121   120    1
    58    52    54   ar
    59   120   117    1
    60   117   116    1
    61   117   118    1
    62   130   129    1
    63   130   131    1
    64   133   132    1
    65   126   125    1
    66   126   127    2
    67   129   128    1
    68   128   125    1
    69   125   124    1
    70   118   119    2
    71    66    65    1
    72    63    65   ar
    73    63    61   ar
    74    83    81    1
    75   132   131    2
    76   132   134    1
    77    65    64   ar
    78    70    69    2
    79    61    60   ar
    80    71    72    1
    81    71    68    1
    82    81    82    1
    83    81    80    2
    84    69    68    1
    85   103   101    1
    86   115   114    1
    87    64    62   ar
    88    68    67    1
    89    80    79    1
    90    60    62   ar
    91    60    59    1
    92   101   102    1
    93   101   100    2
    94   114   112   ar
    95   114   113   ar
    96    59    56    1
    97    58    57    2
    98   112   110   ar
    99   113   111   ar
   100    79    78    1
   101   100    99    1
   102    56    57    1
   103    56    55    1
   104   110   109   ar
   105   111   109   ar
   106    99    98    1
   107   109   108    1
   108    92    90   ar
   109    78    77    1
   110    98    97    1
   111    90    89    1
   112    90    91   ar
   113   108   105    1
   114    89    88    1
   115    77    74    1
   116    97    94    1
   117   105   104    1
   118   105   106    1
   119    88    85    1
   120    94    93    1
   121    94    95    1
   122    76    75    2
   123    75    74    1
   124    75    84   am
   125    85    84    1
   126    85    86    1
   127    74    73    1
   128   107   106    2
   129    95    96    2
   130    87    86    2
