@<TRIPOS>MOLECULE
tmp/2e24A00.pdb
 135 135 0 0 0
SMALL
GASTEIGER

@<TRIPOS>ATOM
      1  N          5.0260  -63.0330   39.2950 N.3    66  ASP66      -0.1239
      2  CA         5.7960  -62.7530   40.5030 C.3    66  ASP66       0.1674
      3  C          7.2680  -62.4910   40.1930 C.2    66  ASP66       0.2266
      4  O          7.8630  -61.5530   40.7250 O.2    66  ASP66      -0.2867
      5  CB         5.6770  -63.9160   41.4940 C.3    66  ASP66       0.1410
      6  CG         4.2910  -64.0210   42.1050 C.2    66  ASP66       0.3668
      7  OD1        3.3100  -64.1740   41.3440 O.co2  66  ASP66      -0.2456
      8  OD2        4.1830  -63.9490   43.3480 O.co2  66  ASP66      -0.2456
      9  N         -3.0620  -64.3360   35.6540 N.3   120  TYR120     -0.1227
     10  CA        -2.5200  -64.4060   37.0060 C.3   120  TYR120      0.1736
     11  C         -1.0430  -64.0070   37.0150 C.2   120  TYR120      0.2595
     12  O         -0.2660  -64.5090   36.2040 O.2   120  TYR120     -0.2718
     13  CB        -2.6590  -65.8290   37.5570 C.3   120  TYR120      0.0548
     14  CG        -2.1450  -65.9710   38.9700 C.ar  120  TYR120     -0.0200
     15  CD1       -2.9400  -65.6190   40.0590 C.ar  120  TYR120     -0.0009
     16  CD2       -0.8390  -66.3930   39.2160 C.ar  120  TYR120     -0.0009
     17  CE1       -2.4460  -65.6780   41.3560 C.ar  120  TYR120      0.0417
     18  CE2       -0.3340  -66.4540   40.5070 C.ar  120  TYR120      0.0417
     19  CZ        -1.1410  -66.0930   41.5720 C.ar  120  TYR120      0.1957
     20  OH        -0.6390  -66.1310   42.8510 O.3   120  TYR120     -0.2866
     21  N         -0.6470  -63.0960   37.9020 N.am  121  ASN121     -0.1960
     22  CA        -1.5350  -62.4350   38.8560 C.3   121  ASN121      0.1819
     23  C         -1.8000  -61.0450   38.2900 C.2   121  ASN121      0.2621
     24  O         -0.8690  -60.2670   38.0890 O.2   121  ASN121     -0.2715
     25  CB        -0.8440  -62.3390   40.2230 C.3   121  ASN121      0.1195
     26  CG        -1.6520  -61.5520   41.2480 C.2   121  ASN121      0.2630
     27  OD1       -1.3280  -61.5550   42.4360 O.2   121  ASN121     -0.2716
     28  ND2       -2.6970  -60.8710   40.7950 N.am  121  ASN121     -0.0877
     29  N         -3.0680  -60.7430   38.0320 N.am  122  TRP122     -0.1960
     30  CA        -3.4630  -59.4600   37.4580 C.3   122  TRP122      0.1771
     31  C         -2.8180  -58.2420   38.1090 C.2   122  TRP122      0.2620
     32  O         -2.4960  -57.2690   37.4270 O.2   122  TRP122     -0.2715
     33  CB        -4.9850  -59.2890   37.5160 C.3   122  TRP122      0.0590
     34  CG        -5.4970  -58.9440   38.8820 C.ar  122  TRP122      0.0006
     35  CD1       -5.8780  -59.8180   39.8620 C.ar  122  TRP122      0.0946
     36  CD2       -5.6340  -57.6290   39.4410 C.ar  122  TRP122      0.0152
     37  NE1       -6.2430  -59.1290   40.9960 N.ar  122  TRP122     -0.2442
     38  CE2       -6.1030  -57.7860   40.7670 C.ar  122  TRP122      0.0810
     39  CE3       -5.4040  -56.3360   38.9510 C.ar  122  TRP122      0.0012
     40  CZ2       -6.3480  -56.6960   41.6120 C.ar  122  TRP122      0.0191
     41  CZ3       -5.6480  -55.2480   39.7920 C.ar  122  TRP122      0.0001
     42  CH2       -6.1150  -55.4380   41.1080 C.ar  122  TRP122      0.0015
     43  N         -2.6360  -58.2910   39.4260 N.am  123  TRP123     -0.1960
     44  CA        -2.0590  -57.1640   40.1470 C.3   123  TRP123      0.1771
     45  C         -0.6600  -56.8130   39.6520 C.2   123  TRP123      0.2619
     46  O         -0.2930  -55.6430   39.6030 O.2   123  TRP123     -0.2715
     47  CB        -2.0120  -57.4500   41.6510 C.3   123  TRP123      0.0590
     48  CG        -1.6730  -56.2360   42.4660 C.ar  123  TRP123      0.0006
     49  CD1       -2.5460  -55.3010   42.9520 C.ar  123  TRP123      0.0946
     50  CD2       -0.3620  -55.7850   42.8300 C.ar  123  TRP123      0.0152
     51  NE1       -1.8600  -54.2950   43.5940 N.ar  123  TRP123     -0.2442
     52  CE2       -0.5170  -54.5660   43.5330 C.ar  123  TRP123      0.0810
     53  CE3        0.9310  -56.2910   42.6290 C.ar  123  TRP123      0.0012
     54  CZ2        0.5720  -53.8450   44.0360 C.ar  123  TRP123      0.0191
     55  CZ3        2.0170  -55.5720   43.1290 C.ar  123  TRP123      0.0001
     56  CH2        1.8280  -54.3610   43.8240 C.ar  123  TRP123      0.0015
     57  N          0.1160  -57.8260   39.2860 N.am  124  HIS124     -0.1973
     58  CA         1.4700  -57.6000   38.7950 C.3   124  HIS124      0.1656
     59  C          1.4710  -56.9460   37.4210 C.2   124  HIS124      0.2291
     60  O          2.2070  -55.9910   37.1800 O.2   124  HIS124     -0.2864
     61  CB         2.2320  -58.9220   38.7310 C.3   124  HIS124      0.0771
     62  CG         2.6900  -59.4120   40.0670 C.ar  124  HIS124      0.0820
     63  ND1        2.7040  -60.7470   40.4070 N.ar  124  HIS124     -0.2267
     64  CD2        3.1530  -58.7420   41.1500 C.ar  124  HIS124      0.1154
     65  CE1        3.1530  -60.8790   41.6430 C.ar  124  HIS124      0.1986
     66  NE2        3.4330  -59.6780   42.1160 N.ar  124  HIS124     -0.2212
     67  N        -11.1340  -55.5660   50.4610 N.3   221  HIS221     -0.1241
     68  CA       -11.5760  -56.9230   50.1800 C.3   221  HIS221      0.1621
     69  C        -12.9170  -57.2270   50.8520 C.2   221  HIS221      0.2264
     70  O        -13.1450  -58.3180   51.3830 O.2   221  HIS221     -0.2867
     71  CB       -10.5090  -57.9510   50.5800 C.3   221  HIS221      0.0745
     72  CG        -9.3890  -58.0630   49.5910 C.ar  221  HIS221      0.0817
     73  ND1       -8.4150  -59.0350   49.6730 N.ar  221  HIS221     -0.2268
     74  CD2       -9.0880  -57.3210   48.4980 C.ar  221  HIS221      0.1154
     75  CE1       -7.5630  -58.8880   48.6740 C.ar  221  HIS221      0.1986
     76  NE2       -7.9480  -57.8550   47.9470 N.ar  221  HIS221     -0.2212
     77  N         -3.6690  -52.7920   53.3350 N.3   230  TYR230     -0.1241
     78  CA        -4.1120  -52.0620   52.1580 C.3   230  TYR230      0.1605
     79  C         -4.3350  -50.6030   52.5410 C.2   230  TYR230      0.2264
     80  O         -4.2070  -49.7080   51.7060 O.2   230  TYR230     -0.2867
     81  CB        -5.4170  -52.6540   51.6270 C.3   230  TYR230      0.0534
     82  CG        -5.2410  -53.9250   50.8320 C.ar  230  TYR230     -0.0201
     83  CD1       -4.6490  -53.9030   49.5710 C.ar  230  TYR230     -0.0009
     84  CD2       -5.6880  -55.1470   51.3300 C.ar  230  TYR230     -0.0009
     85  CE1       -4.5110  -55.0700   48.8190 C.ar  230  TYR230      0.0417
     86  CE2       -5.5510  -56.3160   50.5900 C.ar  230  TYR230      0.0417
     87  CZ        -4.9640  -56.2680   49.3360 C.ar  230  TYR230      0.1957
     88  OH        -4.8390  -57.4200   48.6010 O.3   230  TYR230     -0.2866
     89  N         -3.6170  -60.2130   55.9790 N.3   284  ARG284     -0.1245
     90  CA        -2.6880  -61.2880   55.6570 C.3   284  ARG284      0.1563
     91  C         -1.2370  -60.8180   55.6530 C.2   284  ARG284      0.2260
     92  O         -0.3120  -61.6280   55.6350 O.2   284  ARG284     -0.2867
     93  CB        -3.0420  -61.9080   54.2970 C.3   284  ARG284      0.0307
     94  CG        -2.7360  -61.0480   53.0710 C.3   284  ARG284      0.0489
     95  CD        -3.1170  -61.8000   51.7890 C.3   284  ARG284      0.2205
     96  NE        -2.5890  -61.1710   50.5820 N.pl3 284  ARG284     -0.0865
     97  CZ        -3.1650  -60.1600   49.9430 C.cat 284  ARG284      0.5346
     98  NH1       -4.3080  -59.6540   50.3870 N.pl3 284  ARG284      0.1354
     99  NH2       -2.5850  -59.6440   48.8660 N.pl3 284  ARG284      0.1354
    100  N          4.2490  -61.3680   56.2600 N.3   288  ARG288     -0.1245
    101  CA         5.3360  -60.8850   55.4130 C.3   288  ARG288      0.1563
    102  C          6.5040  -60.4300   56.2730 C.2   288  ARG288      0.2260
    103  O          6.3790  -59.4840   57.0570 O.2   288  ARG288     -0.2867
    104  CB         4.8470  -59.7310   54.5360 C.3   288  ARG288      0.0307
    105  CG         3.6800  -60.1160   53.6380 C.3   288  ARG288      0.0489
    106  CD         3.1640  -58.9410   52.8270 C.3   288  ARG288      0.2205
    107  NE         2.1210  -59.3580   51.8950 N.pl3 288  ARG288     -0.0865
    108  CZ         1.4920  -58.5430   51.0530 C.cat 288  ARG288      0.5346
    109  NH1        1.7940  -57.2510   51.0170 N.pl3 288  ARG288      0.1354
    110  NH2        0.5610  -59.0240   50.2370 N.pl3 288  ARG288      0.1354
    111  N         -4.8360  -65.5840   51.1930 N.3   398  ILE398     -0.1231
    112  CA        -4.8780  -65.7890   49.7520 C.3   398  ILE398      0.1692
    113  C         -3.4510  -65.7460   49.2350 C.2   398  ILE398      0.2592
    114  O         -2.5400  -65.3330   49.9530 O.2   398  ILE398     -0.2718
    115  CB        -5.7200  -64.7040   49.0440 C.3   398  ILE398      0.0266
    116  CG1       -5.1620  -63.3160   49.3580 C.3   398  ILE398      0.0019
    117  CG2       -7.1760  -64.8130   49.4790 C.3   398  ILE398      0.0020
    118  CD1       -5.9540  -62.1880   48.7390 C.3   398  ILE398      0.0001
    119  N         -3.2620  -66.1870   47.9950 N.am  399  ASN399     -0.1974
    120  CA        -1.9440  -66.2150   47.3670 C.3   399  ASN399      0.1688
    121  C         -0.8730  -66.8540   48.2520 C.2   399  ASN399      0.2292
    122  O          0.2850  -66.4370   48.2470 O.2   399  ASN399     -0.2864
    123  CB        -1.5270  -64.7960   46.9670 C.3   399  ASN399      0.1181
    124  CG        -2.5500  -64.1290   46.0640 C.2   399  ASN399      0.2629
    125  OD1       -3.1500  -64.7780   45.2020 O.2   399  ASN399     -0.2716
    126  ND2       -2.7460  -62.8290   46.2470 N.am  399  ASN399     -0.0877
    127  N         -0.5220  -66.7520   51.4760 N.3   401  GLU401     -0.1245
    128  CA        -0.0720  -65.9180   52.5860 C.3   401  GLU401      0.1567
    129  C         -0.9820  -66.0450   53.8050 C.2   401  GLU401      0.2260
    130  O         -2.1960  -66.1930   53.6680 O.2   401  GLU401     -0.2867
    131  CB        -0.0440  -64.4470   52.1740 C.3   401  GLU401      0.0388
    132  CG         0.9250  -64.0920   51.0700 C.3   401  GLU401      0.1160
    133  CD         0.9850  -62.5970   50.8530 C.2   401  GLU401      0.3649
    134  OE1        0.0020  -62.0260   50.3350 O.co2 401  GLU401     -0.2457
    135  OE2        2.0100  -61.9910   51.2180 O.co2 401  GLU401     -0.2457
@<TRIPOS>BOND
     1     9    10    1
     2    12    11    2
     3    10    11    1
     4    10    13    1
     5    11    21   am
     6    60    59    2
     7    59    58    1
     8    32    31    2
     9    30    33    1
    10    30    29    1
    11    30    31    1
    12    33    34    1
    13    13    14    1
    14    21    22    1
    15    29    23   am
    16    24    23    2
    17    31    43   am
    18    23    22    1
    19    61    58    1
    20    61    62    1
    21    58    57    1
    22    22    25    1
    23    34    36   ar
    24    34    35   ar
    25    39    36   ar
    26    39    41   ar
    27    14    16   ar
    28    14    15   ar
    29    16    18   ar
    30    57    45   am
    31     1     2    1
    32    43    44    1
    33    36    38   ar
    34    46    45    2
    35    45    44    1
    36    41    42   ar
    37    35    37   ar
    38    15    17   ar
    39    62    63   ar
    40    62    64   ar
    41    44    47    1
    42     3     2    1
    43     3     4    2
    44    25    26    1
    45    63    65   ar
    46     2     5    1
    47    18    19   ar
    48    38    37   ar
    49    38    40   ar
    50    28    26   am
    51    42    40   ar
    52    64    66   ar
    53    26    27    2
    54     7     6   ar
    55    17    19   ar
    56     5     6    1
    57    19    20    1
    58    65    66   ar
    59    47    48    1
    60     6     8   ar
    61    48    50   ar
    62    48    49   ar
    63    53    50   ar
    64    53    55   ar
    65    50    52   ar
    66    49    51   ar
    67    55    56   ar
    68    52    51   ar
    69    52    54   ar
    70    56    54   ar
    71   125   124    2
    72   124   126   am
    73   124   123    1
    74   123   120    1
    75   120   119    1
    76   120   121    1
    77    76    74   ar
    78    76    75   ar
    79   119   113   am
    80   122   121    2
    81    74    72   ar
    82    88    87    1
    83    75    73   ar
    84   118   116    1
    85    85    87   ar
    86    85    83   ar
    87    99    97    1
    88   115   116    1
    89   115   117    1
    90   115   112    1
    91   113   112    1
    92   113   114    2
    93    87    86   ar
    94    83    82   ar
    95    72    73   ar
    96    72    71    1
    97   112   111    1
    98    97    98    1
    99    97    96    2
   100    68    67    1
   101    68    71    1
   102    68    69    1
   103   110   108    1
   104   134   133   ar
   105    96    95    1
   106    86    84   ar
   107    82    84   ar
   108    82    81    1
   109    69    70    2
   110   133   132    1
   111   133   135   ar
   112   109   108    1
   113   108   107    2
   114   132   131    1
   115   127   128    1
   116    81    78    1
   117    80    79    2
   118    95    94    1
   119   107   106    1
   120    78    79    1
   121    78    77    1
   122   131   128    1
   123   128   129    1
   124   106   105    1
   125    94    93    1
   126   105   104    1
   127   130   129    2
   128    93    90    1
   129   104   101    1
   130   101   100    1
   131   101   102    1
   132    92    91    2
   133    91    90    1
   134    90    89    1
   135   102   103    2
