@<TRIPOS>MOLECULE
tmp/2e27A00.pdb
 98 96 0 0 0
SMALL
GASTEIGER

@<TRIPOS>ATOM
      1  N         -2.9510    7.9180   25.7670 N.3    31  LYS31      -0.1245
      2  CA        -2.2230    6.8720   25.0600 C.3    31  LYS31       0.1561
      3  C         -2.1350    7.2160   23.5750 C.2    31  LYS31       0.2260
      4  O         -2.7790    6.5970   22.7230 O.2    31  LYS31      -0.2867
      5  CB        -2.9080    5.5220   25.2940 C.3    31  LYS31       0.0271
      6  CG        -2.8230    5.1020   26.7620 C.3    31  LYS31       0.0035
      7  CD        -3.7030    3.9130   27.1000 C.3    31  LYS31       0.0206
      8  CE        -3.1450    2.6160   26.5450 C.3    31  LYS31       0.1093
      9  NZ        -3.9860    1.4720   27.0030 N.3    31  LYS31      -0.1314
     10  N          0.7840    8.5590   20.4430 N.3    33  ALA33      -0.1245
     11  CA         2.1850    8.6500   20.0590 C.3    33  ALA33       0.1562
     12  C          2.2560    9.4360   18.7600 C.2    33  ALA33       0.2260
     13  O          1.2510    9.5930   18.0670 O.2    33  ALA33      -0.2867
     14  CB         2.7700    7.2490   19.8590 C.3    33  ALA33       0.0290
     15  N          4.5540    9.9410   15.1200 N.3    35  TYR35      -0.1241
     16  CA         5.5550    9.3860   14.2170 C.3    35  TYR35       0.1605
     17  C          5.9270   10.3360   13.0960 C.2    35  TYR35       0.2264
     18  O          5.1010   11.1140   12.6230 O.2    35  TYR35      -0.2867
     19  CB         5.0420    8.0970   13.5690 C.3    35  TYR35       0.0534
     20  CG         4.9440    6.9190   14.5000 C.ar   35  TYR35      -0.0201
     21  CD1        3.9110    6.8240   15.4300 C.ar   35  TYR35      -0.0009
     22  CD2        5.9030    5.9070   14.4700 C.ar   35  TYR35      -0.0009
     23  CE1        3.8350    5.7500   16.3140 C.ar   35  TYR35       0.0417
     24  CE2        5.8370    4.8280   15.3480 C.ar   35  TYR35       0.0417
     25  CZ         4.8000    4.7580   16.2670 C.ar   35  TYR35       0.1957
     26  OH         4.7260    3.7050   17.1510 O.3    35  TYR35      -0.2866
     27  N          9.2330    6.5820   15.5320 N.3    45  LEU45      -0.1245
     28  CA         8.5390    6.9950   16.7500 C.3    45  LEU45       0.1561
     29  C          9.2950    8.1470   17.4020 C.2    45  LEU45       0.2260
     30  O         10.5120    8.0760   17.5900 O.2    45  LEU45      -0.2867
     31  CB         8.4470    5.8170   17.7270 C.3    45  LEU45       0.0270
     32  CG         7.8550    6.0890   19.1160 C.3    45  LEU45       0.0019
     33  CD1        6.3990    6.5310   18.9930 C.3    45  LEU45       0.0001
     34  CD2        7.9570    4.8170   19.9600 C.3    45  LEU45       0.0001
     35  N          5.5880    9.3670   22.8550 N.3    48  TYR48      -0.1241
     36  CA         4.5400    8.4380   23.2590 C.3    48  TYR48       0.1605
     37  C          3.9770    8.8900   24.6060 C.2    48  TYR48       0.2264
     38  O          4.5400    9.7760   25.2620 O.2    48  TYR48      -0.2867
     39  CB         5.0340    6.9840   23.2880 C.3    48  TYR48       0.0534
     40  CG         6.1510    6.6890   24.2470 C.ar   48  TYR48      -0.0201
     41  CD1        5.8890    6.3520   25.5750 C.ar   48  TYR48      -0.0009
     42  CD2        7.4750    6.7120   23.8200 C.ar   48  TYR48      -0.0009
     43  CE1        6.9260    6.0410   26.4520 C.ar   48  TYR48       0.0417
     44  CE2        8.5130    6.4060   24.6830 C.ar   48  TYR48       0.0417
     45  CZ         8.2350    6.0710   25.9970 C.ar   48  TYR48       0.1957
     46  OH         9.2760    5.7710   26.8460 O.3    48  TYR48      -0.2866
     47  N         -0.8610    8.5750   16.5660 N.3    88  LEU88      -0.1245
     48  CA        -1.2200    7.1700   16.6410 C.3    88  LEU88       0.1561
     49  C         -1.7610    6.8740   18.0320 C.2    88  LEU88       0.2260
     50  O         -1.0450    7.0400   19.0170 O.2    88  LEU88      -0.2867
     51  CB         0.0360    6.3320   16.3620 C.3    88  LEU88       0.0270
     52  CG         0.0520    4.7980   16.3970 C.3    88  LEU88       0.0019
     53  CD1        0.0790    4.3140   17.8280 C.3    88  LEU88       0.0001
     54  CD2       -1.1420    4.2430   15.6250 C.3    88  LEU88       0.0001
     55  N         -3.0320    4.2300   20.8490 N.3    90  TYR90      -0.1241
     56  CA        -2.7870    2.8160   21.1110 C.3    90  TYR90       0.1605
     57  C         -3.5340    2.2790   22.3250 C.2    90  TYR90       0.2264
     58  O         -3.0630    1.3770   23.0150 O.2    90  TYR90      -0.2867
     59  CB        -1.2760    2.5630   21.2370 C.3    90  TYR90       0.0534
     60  CG        -0.5630    3.4210   22.2630 C.ar   90  TYR90      -0.0201
     61  CD1       -0.4810    3.0250   23.6000 C.ar   90  TYR90      -0.0009
     62  CD2        0.0490    4.6200   21.8900 C.ar   90  TYR90      -0.0009
     63  CE1        0.1980    3.7970   24.5360 C.ar   90  TYR90       0.0417
     64  CE2        0.7270    5.4000   22.8170 C.ar   90  TYR90       0.0417
     65  CZ         0.8000    4.9840   24.1380 C.ar   90  TYR90       0.1957
     66  OH         1.4840    5.7450   25.0600 O.3    90  TYR90      -0.2866
     67  N         -5.6000   -2.0530   23.2760 N.3    93  PHE93      -0.1227
     68  CA        -4.8770   -3.0150   22.4480 C.3    93  PHE93       0.1736
     69  C         -5.1920   -2.9010   20.9540 C.2    93  PHE93       0.2596
     70  O         -5.3970   -3.9020   20.2660 O.2    93  PHE93      -0.2718
     71  CB        -5.1440   -4.4460   22.9360 C.3    93  PHE93       0.0547
     72  CG        -4.5910   -4.7320   24.3080 C.ar   93  PHE93      -0.0202
     73  CD1       -5.2240   -4.2460   25.4480 C.ar   93  PHE93      -0.0042
     74  CD2       -3.4200   -5.4690   24.4580 C.ar   93  PHE93      -0.0042
     75  CE1       -4.6970   -4.4860   26.7200 C.ar   93  PHE93      -0.0003
     76  CE2       -2.8820   -5.7160   25.7200 C.ar   93  PHE93      -0.0003
     77  CZ        -3.5210   -5.2230   26.8560 C.ar   93  PHE93      -0.0000
     78  N         -5.2370   -1.6690   20.4630 N.am   94  THR94      -0.1939
     79  CA        -5.4790   -1.4080   19.0460 C.3    94  THR94       0.2028
     80  C         -4.5730   -0.2490   18.6480 C.2    94  THR94       0.2642
     81  O         -3.9610    0.3880   19.5090 O.2    94  THR94      -0.2714
     82  CB        -6.9450   -0.9970   18.7550 C.3    94  THR94       0.1808
     83  OG1       -7.2440    0.2350   19.4240 O.3    94  THR94      -0.2208
     84  CG2       -7.9110   -2.0780   19.2200 C.3    94  THR94       0.0379
     85  N         -4.4830    0.0010   17.3450 N.am   95  TRP95      -0.1973
     86  CA        -3.6870    1.0950   16.7920 C.3    95  TRP95       0.1640
     87  C         -4.5660    1.8360   15.7910 C.2    95  TRP95       0.2290
     88  O         -5.2760    1.2020   15.0080 O.2    95  TRP95      -0.2864
     89  CB        -2.4660    0.5510   16.0310 C.3    95  TRP95       0.0576
     90  CG        -1.1340    0.6230   16.7400 C.ar   95  TRP95       0.0006
     91  CD1       -0.9090    0.5890   18.0870 C.ar   95  TRP95       0.0946
     92  CD2        0.1580    0.6720   16.1200 C.ar   95  TRP95       0.0152
     93  NE1        0.4440    0.6120   18.3450 N.ar   95  TRP95      -0.2442
     94  CE2        1.1210    0.6630   17.1550 C.ar   95  TRP95       0.0810
     95  CE3        0.5950    0.7220   14.7880 C.ar   95  TRP95       0.0012
     96  CZ2        2.4970    0.7030   16.9010 C.ar   95  TRP95       0.0191
     97  CZ3        1.9630    0.7620   14.5340 C.ar   95  TRP95       0.0001
     98  CH2        2.8990    0.7520   15.5890 C.ar   95  TRP95       0.0015
@<TRIPOS>BOND
     1    18    17    2
     2    17    16    1
     3    19    16    1
     4    19    20    1
     5    16    15    1
     6    22    20   ar
     7    22    24   ar
     8    20    21   ar
     9    97    95   ar
    10    97    98   ar
    11    95    92   ar
    12    88    87    2
    13    24    25   ar
    14    21    23   ar
    15    27    28    1
    16    98    96   ar
    17    54    52    1
    18    87    86    1
    19    89    90    1
    20    89    86    1
    21    92    90   ar
    22    92    94   ar
    23    25    23   ar
    24    25    26    1
    25    51    52    1
    26    51    48    1
    27    52    53    1
    28    47    48    1
    29    48    49    1
    30    90    91   ar
    31    28    29    1
    32    28    31    1
    33    86    85    1
    34    96    94   ar
    35    94    93   ar
    36    85    80   am
    37    29    30    2
    38    31    32    1
    39    49    50    2
    40    13    12    2
    41    91    93   ar
    42    80    79    1
    43    80    81    2
    44    82    79    1
    45    82    84    1
    46    82    83    1
    47    12    11    1
    48    33    32    1
    49    79    78    1
    50    32    34    1
    51    14    11    1
    52    11    10    1
    53    70    69    2
    54    78    69   am
    55    55    56    1
    56    69    68    1
    57    56    59    1
    58    56    57    1
    59    59    60    1
    60    62    60   ar
    61    62    64   ar
    62    60    61   ar
    63    57    58    2
    64    68    71    1
    65    68    67    1
    66     4     3    2
    67    64    65   ar
    68    35    36    1
    69    71    72    1
    70    36    39    1
    71    36    37    1
    72    39    40    1
    73     3     2    1
    74    61    63   ar
    75    42    40   ar
    76    42    44   ar
    77    65    63   ar
    78    65    66    1
    79    40    41   ar
    80    72    74   ar
    81    72    73   ar
    82    74    76   ar
    83    37    38    2
    84    44    45   ar
    85     2     5    1
    86     2     1    1
    87     5     6    1
    88    73    75   ar
    89    41    43   ar
    90    76    77   ar
    91    45    43   ar
    92    45    46    1
    93     8     9    1
    94     8     7    1
    95    75    77   ar
    96     6     7    1
