@<TRIPOS>MOLECULE
tmp/2e2bB00.pdb
 237 227 0 0 0
SMALL
GASTEIGER

@<TRIPOS>ATOM
      1  N          9.2810  103.7990   48.4720 N.3    24  LEU24      -0.1245
      2  CA        10.6040  103.1940   48.3870 C.3    24  LEU24       0.1561
      3  C         10.5670  101.9250   47.5400 C.2    24  LEU24       0.2260
      4  O          9.6330  101.1250   47.6380 O.2    24  LEU24      -0.2867
      5  CB        11.1110  102.8750   49.7910 C.3    24  LEU24       0.0270
      6  CG        12.5600  103.2570   50.0800 C.3    24  LEU24       0.0019
      7  CD1       12.8140  104.7020   49.6650 C.3    24  LEU24       0.0001
      8  CD2       12.8330  103.0690   51.5550 C.3    24  LEU24       0.0001
      9  N          8.1160   97.4540   48.9090 N.3    29  TYR29      -0.1241
     10  CA         8.0600   97.2930   50.3600 C.3    29  TYR29       0.1605
     11  C          6.7170   97.7190   50.9440 C.2    29  TYR29       0.2264
     12  O          6.5390   97.7480   52.1650 O.2    29  TYR29      -0.2867
     13  CB         9.1630   98.1120   51.0270 C.3    29  TYR29       0.0534
     14  CG        10.5530   97.8320   50.5180 C.ar   29  TYR29      -0.0201
     15  CD1       11.1960   98.7220   49.6730 C.ar   29  TYR29      -0.0009
     16  CD2       11.2250   96.6750   50.8810 C.ar   29  TYR29      -0.0009
     17  CE1       12.4700   98.4740   49.2150 C.ar   29  TYR29       0.0417
     18  CE2       12.5050   96.4160   50.4230 C.ar   29  TYR29       0.0417
     19  CZ        13.1190   97.3280   49.5900 C.ar   29  TYR29       0.1957
     20  OH        14.3900   97.0970   49.1310 O.3    29  TYR29      -0.2866
     21  N          6.0260  102.1400   52.4300 N.3    32  VAL32      -0.1245
     22  CA         7.2820  102.6800   52.9300 C.3    32  VAL32       0.1561
     23  C          7.7470  103.7300   51.9230 C.2    32  VAL32       0.2260
     24  O          7.8480  103.4420   50.7340 O.2    32  VAL32      -0.2867
     25  CB         8.3750  101.5990   53.0480 C.3    32  VAL32       0.0252
     26  CG1        9.6300  102.2060   53.6800 C.3    32  VAL32       0.0019
     27  CG2        7.8660  100.4420   53.8750 C.3    32  VAL32       0.0019
     28  N         13.9940  106.1380   55.7420 N.3    45  ALA45      -0.1231
     29  CA        12.9060  105.2890   55.2840 C.3    45  ALA45       0.1694
     30  C         11.7670  105.4450   56.2750 C.2    45  ALA45       0.2592
     31  O         11.9670  105.3050   57.4860 O.2    45  ALA45      -0.2718
     32  CB        13.3640  103.8270   55.2360 C.3    45  ALA45       0.0304
     33  N         10.5790  105.7470   55.7690 N.am   46  VAL46      -0.1966
     34  CA         9.4350  105.9380   56.6440 C.3    46  VAL46       0.1727
     35  C          8.2760  105.0270   56.2980 C.2    46  VAL46       0.2616
     36  O          7.6640  105.1600   55.2430 O.2    46  VAL46      -0.2715
     37  CB         8.9180  107.4000   56.5970 C.3    46  VAL46       0.0290
     38  CG1        7.7670  107.5660   57.5690 C.3    46  VAL46       0.0023
     39  CG2       10.0500  108.3720   56.9300 C.3    46  VAL46       0.0023
     40  N          7.9800  104.0920   57.1930 N.am   47  LYS47      -0.1977
     41  CA         6.8550  103.1930   56.9930 C.3    47  LYS47       0.1596
     42  C          5.6310  103.8470   57.6310 C.2    47  LYS47       0.2287
     43  O          5.6760  104.2860   58.7910 O.2    47  LYS47      -0.2864
     44  CB         7.1240  101.8440   57.6440 C.3    47  LYS47       0.0298
     45  CG         5.9580  100.8760   57.5620 C.3    47  LYS47       0.0038
     46  CD         6.3090   99.5520   58.2010 C.3    47  LYS47       0.0206
     47  CE         5.1570   98.5690   58.0800 C.3    47  LYS47       0.1093
     48  NZ         5.4530   97.2770   58.7630 N.3    47  LYS47      -0.1314
     49  N          5.1290   96.5550   66.5010 N.3    57  GLU57      -0.1245
     50  CA         6.4120   96.5780   65.8190 C.3    57  GLU57       0.1567
     51  C          7.2630   97.7240   66.3700 C.2    57  GLU57       0.2260
     52  O          8.4060   97.5270   66.7640 O.2    57  GLU57      -0.2867
     53  CB         6.2090   96.7360   64.3150 C.3    57  GLU57       0.0388
     54  CG         7.4470   96.3970   63.5060 C.3    57  GLU57       0.1160
     55  CD         7.3670   96.8150   62.0340 C.2    57  GLU57       0.3649
     56  OE1        6.2490   96.9290   61.4790 O.co2  57  GLU57      -0.2457
     57  OE2        8.4440   97.0130   61.4360 O.co2  57  GLU57      -0.2457
     58  N          8.7480   96.8720   69.6660 N.3    60  VAL60      -0.1231
     59  CA         9.8290   95.9020   69.5410 C.3    60  VAL60       0.1692
     60  C         11.1160   96.5960   69.0970 C.2    60  VAL60       0.2591
     61  O         12.1660   96.4020   69.6930 O.2    60  VAL60      -0.2718
     62  CB         9.4700   94.8150   68.5120 C.3    60  VAL60       0.0266
     63  CG1       10.6940   93.9860   68.1770 C.3    60  VAL60       0.0020
     64  CG2        8.3710   93.9260   69.0690 C.3    60  VAL60       0.0020
     65  N         11.0260   97.4130   68.0560 N.am   61  MET61      -0.1979
     66  CA        12.1990   98.0970   67.5410 C.3    61  MET61       0.1605
     67  C         12.8870   99.0510   68.5270 C.2    61  MET61       0.2287
     68  O         14.0880   99.3000   68.4110 O.2    61  MET61      -0.2864
     69  CB        11.8360   98.8330   66.2510 C.3    61  MET61       0.0413
     70  CG        11.4750   97.8750   65.0970 C.3    61  MET61       0.0598
     71  SD        10.9020   98.7880   63.6660 S.3    61  MET61      -0.1393
     72  CE        12.5010   99.3330   63.0130 C.3    61  MET61       0.0692
     73  N         15.6280   97.1110   70.4720 N.3    64  ILE64      -0.1245
     74  CA        16.7970   96.5150   69.8330 C.3    64  ILE64       0.1561
     75  C         17.7880   97.4940   69.2200 C.2    64  ILE64       0.2260
     76  O         17.4230   98.4980   68.5970 O.2    64  ILE64      -0.2867
     77  CB        16.3810   95.4680   68.7610 C.3    64  ILE64       0.0252
     78  CG1       15.4160   96.0820   67.7600 C.3    64  ILE64       0.0019
     79  CG2       15.7200   94.2740   69.4160 C.3    64  ILE64       0.0019
     80  CD1       14.8000   95.0550   66.8290 C.3    64  ILE64       0.0001
     81  N         21.5200   95.4860   62.5900 N.3    69  LEU69      -0.1231
     82  CA        20.0650   95.3970   62.5880 C.3    69  LEU69       0.1693
     83  C         19.5960   96.7770   62.1660 C.2    69  LEU69       0.2591
     84  O         20.1310   97.7770   62.6300 O.2    69  LEU69      -0.2718
     85  CB        19.5230   95.0550   63.9860 C.3    69  LEU69       0.0284
     86  CG        19.6100   93.5830   64.4260 C.3    69  LEU69       0.0019
     87  CD1       19.1350   93.4440   65.8550 C.3    69  LEU69       0.0001
     88  CD2       18.7520   92.7100   63.5040 C.3    69  LEU69       0.0001
     89  N         18.6140   96.8470   61.2770 N.am   70  VAL70      -0.1980
     90  CA        18.1310   98.1380   60.8120 C.3    70  VAL70       0.1595
     91  C         17.8750   99.0970   62.0060 C.2    70  VAL70       0.2287
     92  O         17.2010   98.7360   62.9720 O.2    70  VAL70      -0.2864
     93  CB        16.8750   97.9460   59.9370 C.3    70  VAL70       0.0276
     94  CG1       15.7580   97.3270   60.7430 C.3    70  VAL70       0.0022
     95  CG2       16.4750   99.2740   59.3190 C.3    70  VAL70       0.0022
     96  N          6.9710  105.0950   61.3930 N.3    84  ILE84      -0.1245
     97  CA         8.1330  104.3970   61.9220 C.3    84  ILE84       0.1561
     98  C          9.2670  104.7340   60.9850 C.2    84  ILE84       0.2260
     99  O          9.2550  104.3370   59.8130 O.2    84  ILE84      -0.2867
    100  CB         7.8990  102.8790   61.9670 C.3    84  ILE84       0.0252
    101  CG1        6.7430  102.4960   62.9020 C.3    84  ILE84       0.0019
    102  CG2        9.1400  102.1510   62.4640 C.3    84  ILE84       0.0019
    103  CD1        6.5700  100.9910   63.0820 C.3    84  ILE84       0.0001
    104  N         13.3420  104.7380   60.0410 N.3    86  THR86      -0.1203
    105  CA        14.6090  104.0520   60.2140 C.3    86  THR86       0.1994
    106  C         15.5900  104.6660   59.2400 C.2    86  THR86       0.2618
    107  O         15.2130  105.4730   58.3930 O.2    86  THR86      -0.2717
    108  CB        14.4910  102.5680   59.8660 C.3    86  THR86       0.1784
    109  OG1       14.3920  102.4160   58.4410 O.3    86  THR86      -0.2211
    110  CG2       13.2550  101.9810   60.5200 C.3    86  THR86       0.0376
    111  N         16.8500  104.2870   59.3670 N.am   87  GLU87      -0.1965
    112  CA        17.8750  104.7780   58.4700 C.3    87  GLU87       0.1733
    113  C         17.5830  104.2770   57.0620 C.2    87  GLU87       0.2616
    114  O         16.7830  103.3690   56.8660 O.2    87  GLU87      -0.2715
    115  CB        19.2290  104.2590   58.8950 C.3    87  GLU87       0.0429
    116  CG        19.2250  102.7630   59.1310 C.3    87  GLU87       0.1163
    117  CD        20.6110  102.2240   59.3880 C.2    87  GLU87       0.3649
    118  OE1       20.7390  101.1890   60.0690 O.co2  87  GLU87      -0.2457
    119  OE2       21.5750  102.8490   58.9020 O.co2  87  GLU87      -0.2457
    120  N         18.2390  104.8890   56.0830 N.am   88  PHE88      -0.1960
    121  CA        18.0860  104.4940   54.6940 C.3    88  PHE88       0.1771
    122  C         19.4050  103.8300   54.3170 C.2    88  PHE88       0.2619
    123  O         20.4750  104.3750   54.5830 O.2    88  PHE88      -0.2715
    124  CB        17.8500  105.7090   53.8120 C.3    88  PHE88       0.0574
    125  CG        17.6310  105.3750   52.3670 C.ar   88  PHE88      -0.0200
    126  CD1       16.3710  105.0510   51.8950 C.ar   88  PHE88      -0.0042
    127  CD2       18.6870  105.3870   51.4770 C.ar   88  PHE88      -0.0042
    128  CE1       16.1730  104.7340   50.5620 C.ar   88  PHE88      -0.0003
    129  CE2       18.4990  105.0690   50.1450 C.ar   88  PHE88      -0.0003
    130  CZ        17.2390  104.7500   49.6860 C.ar   88  PHE88      -0.0000
    131  N         19.3290  102.6400   53.7190 N.am   89  MET89      -0.1977
    132  CA        20.5270  101.9160   53.3120 C.3    89  MET89       0.1605
    133  C         20.7460  102.1480   51.8260 C.2    89  MET89       0.2287
    134  O         19.9580  101.7020   50.9930 O.2    89  MET89      -0.2864
    135  CB        20.3700  100.4300   53.6100 C.3    89  MET89       0.0413
    136  CG        20.1450  100.1110   55.0820 C.3    89  MET89       0.0598
    137  SD        21.5790  100.4300   56.1040 S.3    89  MET89      -0.1393
    138  CE        22.5230   98.9410   55.8330 C.3    89  MET89       0.0692
    139  N         19.9760   99.3190   48.8830 N.3    92  GLY92      -0.1225
    140  CA        18.7220   98.5260   48.8800 C.3    92  GLY92       0.1811
    141  C         18.8680   97.1510   49.5280 C.2    92  GLY92       0.2280
    142  O         19.7570   96.9140   50.3400 O.2    92  GLY92      -0.2866
    143  N         19.9680   88.8730   68.3560 N.3   125  LEU125     -0.1245
    144  CA        18.5310   88.6110   68.4270 C.3   125  LEU125      0.1561
    145  C         18.2880   87.3730   69.2640 C.2   125  LEU125      0.2260
    146  O         17.3290   87.3050   70.0370 O.2   125  LEU125     -0.2867
    147  CB        17.9790   88.4040   67.0140 C.3   125  LEU125      0.0270
    148  CG        16.8150   89.2770   66.5560 C.3   125  LEU125      0.0019
    149  CD1       16.9820   90.6940   67.0140 C.3   125  LEU125      0.0001
    150  CD2       16.7350   89.2080   65.0420 C.3   125  LEU125      0.0001
    151  N         14.5600   87.0690   70.9270 N.3   130  PHE130     -0.1227
    152  CA        13.6020   87.4160   69.8750 C.3   130  PHE130      0.1736
    153  C         13.6660   86.3750   68.7630 C.2   130  PHE130      0.2595
    154  O         14.6890   85.7220   68.5810 O.2   130  PHE130     -0.2718
    155  CB        13.9130   88.7790   69.2750 C.3   130  PHE130      0.0547
    156  CG        13.4930   89.9240   70.1250 C.ar  130  PHE130     -0.0202
    157  CD1       14.4180   90.6250   70.8620 C.ar  130  PHE130     -0.0042
    158  CD2       12.1630   90.2900   70.1920 C.ar  130  PHE130     -0.0042
    159  CE1       14.0260   91.6790   71.6630 C.ar  130  PHE130     -0.0003
    160  CE2       11.7700   91.3330   70.9830 C.ar  130  PHE130     -0.0003
    161  CZ        12.7040   92.0270   71.7190 C.ar  130  PHE130     -0.0000
    162  N         12.5760   86.2210   68.0270 N.am  131  ILE131     -0.1966
    163  CA        12.5270   85.2630   66.9300 C.3   131  ILE131      0.1727
    164  C         12.2390   86.0780   65.6800 C.2   131  ILE131      0.2616
    165  O         11.2670   86.8330   65.6470 O.2   131  ILE131     -0.2715
    166  CB        11.3990   84.2500   67.1330 C.3   131  ILE131      0.0290
    167  CG1       11.6370   83.4700   68.4180 C.3   131  ILE131      0.0022
    168  CG2       11.2980   83.3470   65.9110 C.3   131  ILE131      0.0023
    169  CD1       10.5670   82.4460   68.7230 C.3   131  ILE131      0.0001
    170  N         13.0740   85.9290   64.6520 N.am  132  HIS132     -0.1959
    171  CA        12.8900   86.6950   63.4280 C.3   132  HIS132      0.1787
    172  C         11.6940   86.2330   62.5900 C.2   132  HIS132      0.2620
    173  O         10.8570   87.0530   62.2080 O.2   132  HIS132     -0.2715
    174  CB        14.1730   86.6660   62.5900 C.3   132  HIS132      0.0785
    175  CG        14.1660   87.6380   61.4510 C.ar  132  HIS132      0.0821
    176  ND1       13.2770   87.5430   60.4020 N.ar  132  HIS132     -0.2267
    177  CD2       14.8950   88.7610   61.2400 C.ar  132  HIS132      0.1154
    178  CE1       13.4560   88.5780   59.5900 C.ar  132  HIS132      0.1986
    179  NE2       14.4300   89.3280   60.0760 N.ar  132  HIS132     -0.2212
    180  N         11.6300   84.9300   62.2980 N.am  133  ARG133     -0.1963
    181  CA        10.5310   84.3340   61.5200 C.3   133  ARG133      0.1729
    182  C         10.5260   84.5100   59.9990 C.2   133  ARG133      0.2616
    183  O          9.7720   83.8190   59.3050 O.2   133  ARG133     -0.2715
    184  CB         9.1820   84.8140   62.0600 C.3   133  ARG133      0.0348
    185  CG         8.6090   83.9150   63.1180 C.3   133  ARG133      0.0492
    186  CD         7.2300   84.3750   63.5550 C.3   133  ARG133      0.2205
    187  NE         6.7600   83.5970   64.6950 N.pl3 133  ARG133     -0.0865
    188  CZ         5.8280   84.0130   65.5500 C.cat 133  ARG133      0.5346
    189  NH1        5.2630   85.2080   65.3850 N.pl3 133  ARG133      0.1354
    190  NH2        5.4670   83.2490   66.5690 N.pl3 133  ARG133      0.1354
    191  N         11.3360   85.4170   59.4710 N.am  134  ASP134     -0.1971
    192  CA        11.3780   85.6220   58.0200 C.3   134  ASP134      0.1709
    193  C         12.7700   86.0520   57.5680 C.2   134  ASP134      0.2293
    194  O         12.9280   87.0250   56.8380 O.2   134  ASP134     -0.2864
    195  CB        10.3380   86.6660   57.6040 C.3   134  ASP134      0.1436
    196  CG        10.0030   86.5930   56.1180 C.2   134  ASP134      0.3671
    197  OD1       10.4490   85.6200   55.4560 O.co2 134  ASP134     -0.2456
    198  OD2        9.3000   87.4980   55.6180 O.co2 134  ASP134     -0.2456
    199  N         19.5160   94.5410   54.2140 N.3   141  LEU141     -0.1245
    200  CA        19.8840   95.7630   53.4930 C.3   141  LEU141      0.1561
    201  C         21.3880   95.8450   53.3540 C.2   141  LEU141      0.2260
    202  O         22.1240   95.2910   54.1660 O.2   141  LEU141     -0.2867
    203  CB        19.4200   97.0270   54.2290 C.3   141  LEU141      0.0270
    204  CG        17.9790   97.5390   54.2010 C.3   141  LEU141      0.0019
    205  CD1       17.3390   97.1650   52.8810 C.3   141  LEU141      0.0001
    206  CD2       17.2010   96.9690   55.3730 C.3   141  LEU141      0.0001
    207  N         20.3020   93.2300   59.0750 N.3   150  VAL150     -0.1231
    208  CA        19.1040   92.4020   59.0410 C.3   150  VAL150      0.1692
    209  C         17.9090   93.3050   59.3300 C.2   150  VAL150      0.2592
    210  O         17.9890   94.2360   60.1450 O.2   150  VAL150     -0.2718
    211  CB        19.1490   91.2920   60.1150 C.3   150  VAL150      0.0266
    212  CG1       17.7670   90.6760   60.2770 C.3   150  VAL150      0.0020
    213  CG2       20.1700   90.2230   59.7150 C.3   150  VAL150      0.0020
    214  N         16.8040   93.0250   58.6570 N.am  151  ALA151     -0.1966
    215  CA        15.5950   93.7990   58.8030 C.3   151  ALA151      0.1728
    216  C         14.4130   92.8610   58.7150 C.2   151  ALA151      0.2616
    217  O         14.5740   91.6470   58.6250 O.2   151  ALA151     -0.2715
    218  CB        15.5080   94.8170   57.6860 C.3   151  ALA151      0.0334
    219  N         13.2180   93.4300   58.7560 N.am  152  ASP152     -0.1957
    220  CA        12.0010   92.6460   58.6310 C.3   152  ASP152      0.1840
    221  C         10.9700   93.5410   57.9840 C.2   152  ASP152      0.2622
    222  O         10.3710   94.3960   58.6380 O.2   152  ASP152     -0.2715
    223  CB        11.4910   92.1530   59.9850 C.3   152  ASP152      0.1450
    224  CG        10.3260   91.1930   59.8390 C.2   152  ASP152      0.3671
    225  OD1        9.4110   91.4960   59.0410 O.co2 152  ASP152     -0.2456
    226  OD2       10.3140   90.1370   60.5050 O.co2 152  ASP152     -0.2456
    227  N         10.7580   93.3470   56.6910 N.am  153  PHE153     -0.1974
    228  CA         9.8330   94.1890   55.9480 C.3   153  PHE153      0.1639
    229  C          8.3830   93.7340   55.9510 C.2   153  PHE153      0.2290
    230  O          7.5320   94.3890   55.3540 O.2   153  PHE153     -0.2864
    231  CB        10.3380   94.3290   54.5060 C.3   153  PHE153      0.0560
    232  CG        11.7580   94.8310   54.4160 C.ar  153  PHE153     -0.0200
    233  CD1       12.6260   94.3210   53.4580 C.ar  153  PHE153     -0.0042
    234  CD2       12.2270   95.8000   55.2980 C.ar  153  PHE153     -0.0042
    235  CE1       13.9320   94.7740   53.3880 C.ar  153  PHE153     -0.0003
    236  CE2       13.5270   96.2500   55.2290 C.ar  153  PHE153     -0.0003
    237  CZ        14.3830   95.7440   54.2770 C.ar  153  PHE153     -0.0000
@<TRIPOS>BOND
     1     3     4    2
     2     3     2    1
     3     2     1    1
     4     2     5    1
     5   140   139    1
     6   140   141    1
     7     9    10    1
     8    20    19    1
     9    17    19   ar
    10    17    15   ar
    11   141   142    2
    12    19    18   ar
    13     7     6    1
    14    15    14   ar
    15   130   129   ar
    16   130   128   ar
    17     5     6    1
    18     6     8    1
    19   129   127   ar
    20    10    11    1
    21    10    13    1
    22    18    16   ar
    23    14    16   ar
    24    14    13    1
    25   128   126   ar
    26    24    23    2
    27    11    12    2
    28   134   133    2
    29   127   125   ar
    30   133   132    1
    31   126   125   ar
    32    23    22    1
    33   125   124    1
    34    21    22    1
    35   205   204    1
    36    22    25    1
    37    25    26    1
    38    25    27    1
    39   132   135    1
    40   132   131    1
    41   201   200    1
    42   201   202    2
    43   235   233   ar
    44   235   237   ar
    45   233   232   ar
    46   200   199    1
    47   200   203    1
    48   135   136    1
    49   131   122   am
    50   124   121    1
    51   204   203    1
    52   204   206    1
    53   237   236   ar
    54   122   123    2
    55   122   121    1
    56   232   231    1
    57   232   234   ar
    58   231   228    1
    59   121   120    1
    60   136   137    1
    61   236   234   ar
    62    32    29    1
    63    36    35    2
    64    29    28    1
    65    29    30    1
    66   230   229    2
    67   197   196   ar
    68   198   196   ar
    69    33    30   am
    70    33    34    1
    71   138   137    1
    72   228   229    1
    73   228   227    1
    74   120   113   am
    75   196   195    1
    76    30    31    2
    77    35    34    1
    78    35    40   am
    79    37    34    1
    80    37    39    1
    81    37    38    1
    82   227   221   am
    83   194   193    2
    84   114   113    2
    85    41    40    1
    86    41    42    1
    87    41    44    1
    88   113   112    1
    89    45    44    1
    90    45    46    1
    91   193   192    1
    92   195   192    1
    93    42    43    2
    94   218   215    1
    95   221   220    1
    96   221   222    2
    97   192   191    1
    98    47    46    1
    99    47    48    1
   100   107   106    2
   101   109   108    1
   102   112   115    1
   103   112   111    1
   104   217   216    2
   105   220   219    1
   106   220   223    1
   107   214   215    1
   108   214   209   am
   109   216   219   am
   110   216   215    1
   111   115   116    1
   112   119   117   ar
   113   208   207    1
   114   208   209    1
   115   208   211    1
   116   225   224   ar
   117   116   117    1
   118   106   111   am
   119   106   105    1
   120   183   182    2
   121    95    93    1
   122   209   210    2
   123   117   118   ar
   124   191   182   am
   125   178   179   ar
   126   178   176   ar
   127   213   211    1
   128    99    98    2
   129   224   223    1
   130   224   226   ar
   131   108   105    1
   132   108   110    1
   133    93    94    1
   134    93    90    1
   135   182   181    1
   136   104   105    1
   137   179   177   ar
   138   211   212    1
   139   176   175   ar
   140    90    89    1
   141    90    91    1
   142    98    97    1
   143   177   175   ar
   144    89    83   am
   145    96    97    1
   146    57    55   ar
   147   175   174    1
   148    56    55   ar
   149   181   184    1
   150   181   180    1
   151    97   100    1
   152   100   102    1
   153   100   101    1
   154    91    92    2
   155    55    54    1
   156   184   185    1
   157    83    82    1
   158    83    84    2
   159   173   172    2
   160   180   172   am
   161    82    81    1
   162    82    85    1
   163   174   171    1
   164   172   171    1
   165   101   103    1
   166    72    71    1
   167   185   186    1
   168   171   170    1
   169    88    86    1
   170    54    53    1
   171   186   187    1
   172    71    70    1
   173    85    86    1
   174    53    50    1
   175    86    87    1
   176   170   164   am
   177   187   188    2
   178   150   148    1
   179    70    69    1
   180   189   188    1
   181   188   190    1
   182   165   164    2
   183   164   163    1
   184    50    51    1
   185    50    49    1
   186   168   166    1
   187    69    66    1
   188    51    52    2
   189   148   149    1
   190   148   147    1
   191    80    78    1
   192   163   166    1
   193   163   162    1
   194   147   144    1
   195   166   167    1
   196    66    65    1
   197    66    67    1
   198    78    77    1
   199   162   153   am
   200    65    60   am
   201    63    62    1
   202   143   144    1
   203    68    67    2
   204   167   169    1
   205   144   145    1
   206    62    64    1
   207    62    59    1
   208   154   153    2
   209    76    75    2
   210    77    79    1
   211    77    74    1
   212   153   152    1
   213    60    59    1
   214    60    61    2
   215    75    74    1
   216   145   146    2
   217   155   152    1
   218   155   156    1
   219    59    58    1
   220    74    73    1
   221   152   151    1
   222   156   158   ar
   223   156   157   ar
   224   158   160   ar
   225   157   159   ar
   226   160   161   ar
   227   159   161   ar
