@<TRIPOS>MOLECULE
tmp/2e2oA00.pdb
 106 96 0 0 0
SMALL
GASTEIGER

@<TRIPOS>ATOM
      1  N          4.5510    9.5520   60.5440 N.3    10  GLY10      -0.1210
      2  CA         4.2690    8.6290   59.4580 C.3    10  GLY10       0.1956
      3  C          3.4030    9.1210   58.3170 C.2    10  GLY10       0.2612
      4  O          3.0210   10.2920   58.2520 O.2    10  GLY10      -0.2717
      5  N          3.0910    8.2020   57.4060 N.am   11  GLY11      -0.1956
      6  CA         2.2740    8.5410   56.2570 C.3    11  GLY11       0.1869
      7  C          0.8100    8.7250   56.6030 C.2    11  GLY11       0.2309
      8  O          0.1110    9.5110   55.9720 O.2    11  GLY11      -0.2863
      9  N          4.8800   12.6150   56.5220 N.3    35  ASN35      -0.1240
     10  CA         5.5810   12.3180   55.2750 C.3    35  ASN35       0.1653
     11  C          5.3910   13.5080   54.3340 C.2    35  ASN35       0.2266
     12  O          4.3090   13.7010   53.7800 O.2    35  ASN35      -0.2867
     13  CB         5.0090   11.0510   54.6350 C.3    35  ASN35       0.1155
     14  CG         5.8160   10.5950   53.4400 C.2    35  ASN35       0.2627
     15  OD1        6.4700   11.4050   52.7840 O.2    35  ASN35      -0.2716
     16  ND2        5.7700    9.2970   53.1440 N.am   35  ASN35      -0.0877
     17  N          6.3030   13.9880   51.3900 N.3    37  HIS37      -0.1241
     18  CA         6.0280   13.6470   49.9990 C.3    37  HIS37       0.1621
     19  C          4.5230   13.6470   49.7690 C.2    37  HIS37       0.2264
     20  O          4.0570   13.8620   48.6490 O.2    37  HIS37      -0.2867
     21  CB         6.5950   12.2670   49.6620 C.3    37  HIS37       0.0745
     22  CG         8.0890   12.2220   49.6290 C.ar   37  HIS37       0.0817
     23  ND1        8.8360   12.9790   48.7520 N.ar   37  HIS37      -0.2268
     24  CD2        8.9780   11.5220   50.3740 C.ar   37  HIS37       0.1154
     25  CE1       10.1200   12.7490   48.9600 C.ar   37  HIS37       0.1986
     26  NE2       10.2330   11.8690   49.9380 N.ar   37  HIS37      -0.2212
     27  N          8.7890    9.1310   58.1180 N.3    68  ALA68      -0.1231
     28  CA         8.5100    8.4210   56.8780 C.3    68  ALA68       0.1694
     29  C          8.8000    9.3860   55.7310 C.2    68  ALA68       0.2592
     30  O          8.4970   10.5750   55.8250 O.2    68  ALA68      -0.2718
     31  CB         7.0450    7.9940   56.8340 C.3    68  ALA68       0.0304
     32  N          9.3900    8.8840   54.6530 N.am   69  GLY69      -0.1957
     33  CA         9.6630    9.7510   53.5210 C.3    69  GLY69       0.1869
     34  C         11.0980   10.2090   53.3340 C.2    69  GLY69       0.2309
     35  O         11.4130   10.8210   52.3140 O.2    69  GLY69      -0.2863
     36  N         13.7790    9.1850   52.0980 N.3    71  ASP71      -0.1239
     37  CA        14.1970    8.1000   51.2190 C.3    71  ASP71       0.1674
     38  C         15.3810    8.3570   50.2950 C.2    71  ASP71       0.2266
     39  O         15.7540    7.4880   49.5050 O.2    71  ASP71      -0.2867
     40  CB        12.9860    7.6710   50.3900 C.3    71  ASP71       0.1410
     41  CG        11.7910    7.3130   51.2560 C.2    71  ASP71       0.3668
     42  OD1       10.6490    7.3040   50.7420 O.co2  71  ASP71      -0.2456
     43  OD2       12.0010    7.0330   52.4550 O.co2  71  ASP71      -0.2456
     44  N         15.1300    7.8620   60.1990 N.3    94  HIS94      -0.1226
     45  CA        14.1140    7.3070   59.3180 C.3    94  HIS94       0.1752
     46  C         13.1540    6.5490   60.2410 C.2    94  HIS94       0.2596
     47  O         13.5790    6.0210   61.2710 O.2    94  HIS94      -0.2718
     48  CB        14.7720    6.3500   58.3250 C.3    94  HIS94       0.0759
     49  CG        13.8000    5.6340   57.4420 C.ar   94  HIS94       0.0818
     50  ND1       13.7480    4.2600   57.3600 N.ar   94  HIS94      -0.2268
     51  CD2       12.8460    6.1000   56.6010 C.ar   94  HIS94       0.1154
     52  CE1       12.8020    3.9080   56.5060 C.ar   94  HIS94       0.1986
     53  NE2       12.2410    5.0050   56.0320 N.ar   94  HIS94      -0.2212
     54  N         11.8710    6.4780   59.8930 N.am   95  ASP95      -0.1974
     55  CA        10.9360    5.7920   60.7810 C.3    95  ASP95       0.1709
     56  C         11.2280    4.3130   61.0070 C.2    95  ASP95       0.2293
     57  O         10.9760    3.7960   62.0960 O.2    95  ASP95      -0.2864
     58  CB         9.4750    6.0100   60.3330 C.3    95  ASP95       0.1436
     59  CG         9.1630    5.4430   58.9570 C.2    95  ASP95       0.3671
     60  OD1       10.0870    5.0910   58.1980 O.co2  95  ASP95      -0.2456
     61  OD2        7.9570    5.3660   58.6370 O.co2  95  ASP95      -0.2456
     62  N          7.0930   -2.1440   58.9910 N.3   113  ILE113     -0.1245
     63  CA         6.1300   -1.0840   59.2340 C.3   113  ILE113      0.1561
     64  C          5.1610   -1.2070   58.0710 C.2   113  ILE113      0.2260
     65  O          5.5670   -1.1820   56.9050 O.2   113  ILE113     -0.2867
     66  CB         6.7440    0.3320   59.1930 C.3   113  ILE113      0.0252
     67  CG1        7.7290    0.5210   60.3460 C.3   113  ILE113      0.0019
     68  CG2        5.6200    1.3770   59.2890 C.3   113  ILE113      0.0019
     69  CD1        8.3960    1.8970   60.3530 C.3   113  ILE113      0.0001
     70  N          1.8060    0.6730   57.1050 N.3   115  GLY115     -0.1225
     71  CA         0.8180    1.7120   57.3430 C.3   115  GLY115      0.1811
     72  C          0.3730    2.2630   55.9980 C.2   115  GLY115      0.2280
     73  O         -0.0100    1.4970   55.1230 O.2   115  GLY115     -0.2866
     74  N          2.2910    3.5700   53.9480 N.3   117  GLY117     -0.1210
     75  CA         3.3740    3.0670   53.1250 C.3   117  GLY117      0.1956
     76  C          3.9330    1.8930   53.9140 C.2   117  GLY117      0.2613
     77  O          3.3920    1.5570   54.9690 O.2   117  GLY117     -0.2717
     78  N          4.9910    1.2550   53.4300 N.am  118  SER118     -0.1938
     79  CA         5.5650    0.1370   54.1670 C.3   118  SER118      0.2055
     80  C          7.0700    0.0820   54.0070 C.2   118  SER118      0.2642
     81  O          7.6370    0.6800   53.0910 O.2   118  SER118     -0.2714
     82  CB         4.9660   -1.1940   53.6960 C.3   118  SER118      0.2130
     83  OG         5.3750   -1.4900   52.3700 O.3   118  SER118     -0.2179
     84  N          7.7140   -0.6390   54.9170 N.am  119  VAL119     -0.1977
     85  CA         9.1580   -0.7950   54.8740 C.3   119  VAL119      0.1596
     86  C          9.5960   -1.9340   55.7780 C.2   119  VAL119      0.2287
     87  O          8.9040   -2.2920   56.7360 O.2   119  VAL119     -0.2864
     88  CB         9.8820    0.5060   55.3260 C.3   119  VAL119      0.0276
     89  CG1        9.6770    0.7350   56.8220 C.3   119  VAL119      0.0022
     90  CG2       11.3670    0.4200   55.0050 C.3   119  VAL119      0.0022
     91  N         10.2540    0.5500   51.1900 N.3   133  GLY133     -0.1225
     92  CA        10.1760    1.8560   51.8250 C.3   133  GLY133      0.1811
     93  C         10.6440    3.0170   50.9680 C.2   133  GLY133      0.2280
     94  O         11.3550    3.9040   51.4530 O.2   133  GLY133     -0.2866
     95  N          8.2810    4.7910   48.7490 N.3   135  GLY135     -0.1225
     96  CA         7.1260    5.4270   48.1310 C.3   135  GLY135      0.1811
     97  C          6.0920    4.5380   47.4720 C.2   135  GLY135      0.2280
     98  O          6.3370    3.3660   47.2000 O.2   135  GLY135     -0.2866
     99  N          6.2050    0.1370   48.6030 N.3   140  ASP140     -0.1239
    100  CA         5.0990    0.0730   49.5490 C.3   140  ASP140      0.1674
    101  C          4.1650   -1.1310   49.3600 C.2   140  ASP140      0.2266
    102  O          2.9440   -1.0040   49.4620 O.2   140  ASP140     -0.2867
    103  CB         4.3050    1.3900   49.5410 C.3   140  ASP140      0.1410
    104  CG         5.0860    2.5380   50.1670 C.2   140  ASP140      0.3668
    105  OD1        6.1440    2.2650   50.7680 O.co2 140  ASP140     -0.2456
    106  OD2        4.6520    3.7070   50.0660 O.co2 140  ASP140     -0.2456
@<TRIPOS>BOND
     1    98    97    2
     2    97    96    1
     3    96    95    1
     4    99   100    1
     5    20    19    2
     6    23    25   ar
     7    23    22   ar
     8    25    26   ar
     9   101   102    2
    10   101   100    1
    11    39    38    2
    12   103   100    1
    13   103   104    1
    14    22    21    1
    15    22    24   ar
    16    21    18    1
    17    19    18    1
    18    26    24   ar
    19    18    17    1
    20   106   104   ar
    21   104   105   ar
    22    38    37    1
    23    40    37    1
    24    40    41    1
    25    42    41   ar
    26    93    94    2
    27    93    92    1
    28    91    92    1
    29    37    36    1
    30    41    43   ar
    31    35    34    2
    32    83    82    1
    33    15    14    2
    34    81    80    2
    35    75    76    1
    36    75    74    1
    37    16    14   am
    38    34    33    1
    39    78    76   am
    40    78    79    1
    41    14    13    1
    42    33    32    1
    43    82    79    1
    44    12    11    2
    45    76    77    2
    46    80    79    1
    47    80    84   am
    48    11    10    1
    49    13    10    1
    50    32    29   am
    51    85    84    1
    52    85    88    1
    53    85    86    1
    54    90    88    1
    55    73    72    2
    56    10     9    1
    57    88    89    1
    58    29    30    2
    59    29    28    1
    60    86    87    2
    61     8     7    2
    62    72    71    1
    63    53    52   ar
    64    53    51   ar
    65     6     7    1
    66     6     5    1
    67    52    50   ar
    68    51    49   ar
    69    31    28    1
    70    28    27    1
    71    65    64    2
    72    70    71    1
    73    50    49   ar
    74     5     3   am
    75    49    48    1
    76    64    63    1
    77    60    59   ar
    78     4     3    2
    79     3     2    1
    80    48    45    1
    81    61    59   ar
    82    59    58    1
    83    62    63    1
    84    66    63    1
    85    66    68    1
    86    66    67    1
    87    45    44    1
    88    45    46    1
    89     2     1    1
    90    54    46   am
    91    54    55    1
    92    46    47    2
    93    58    55    1
    94    67    69    1
    95    55    56    1
    96    56    57    2
