@<TRIPOS>MOLECULE
tmp/2e2qA01.pdb
 159 145 0 0 0
SMALL
GASTEIGER

@<TRIPOS>ATOM
      1  N          3.7040   33.6080   19.6400 N.3     8  ASP8       -0.1239
      2  CA         4.6490   34.6250   20.0970 C.3     8  ASP8        0.1674
      3  C          5.4030   33.9220   21.2340 C.2     8  ASP8        0.2266
      4  O          4.8730   33.7690   22.3340 O.2     8  ASP8       -0.2867
      5  CB         3.9010   35.8410   20.6440 C.3     8  ASP8        0.1410
      6  CG         4.8350   36.8920   21.2130 C.2     8  ASP8        0.3668
      7  OD1        4.3480   37.7670   21.9610 O.co2   8  ASP8       -0.2456
      8  OD2        6.0490   36.8540   20.9110 O.co2   8  ASP8       -0.2456
      9  N          8.1190   34.0520   23.8860 N.3    10  GLY10      -0.1210
     10  CA         8.9790   34.9770   24.6200 C.3    10  GLY10       0.1956
     11  C          9.8810   34.3920   25.6990 C.2    10  GLY10       0.2612
     12  O         10.0880   33.1820   25.7700 O.2    10  GLY10      -0.2717
     13  N         10.4340   35.2670   26.5370 N.am   11  GLY11      -0.1942
     14  CA        11.3150   34.8240   27.6080 C.3    11  GLY11       0.2014
     15  C         10.5860   34.4410   28.8880 C.2    11  GLY11       0.2640
     16  O         11.1950   33.8880   29.8040 O.2    11  GLY11      -0.2714
     17  N          9.2910   34.7440   28.9640 N.am   12  THR12      -0.1936
     18  CA         8.4950   34.3960   30.1410 C.3    12  THR12       0.2028
     19  C          7.3420   33.4610   29.7900 C.2    12  THR12       0.2642
     20  O          7.0590   32.5060   30.5140 O.2    12  THR12      -0.2714
     21  CB         7.9060   35.6450   30.8330 C.3    12  THR12       0.1808
     22  OG1        8.9670   36.3910   31.4400 O.3    12  THR12      -0.2208
     23  CG2        6.8950   35.2260   31.9210 C.3    12  THR12       0.0379
     24  N          6.6800   33.7340   28.6750 N.am   13  LYS13      -0.1977
     25  CA         5.5620   32.9030   28.2500 C.3    13  LYS13       0.1596
     26  C          5.5360   32.7910   26.7390 C.2    13  LYS13       0.2287
     27  O          6.1600   33.5810   26.0270 O.2    13  LYS13      -0.2864
     28  CB         4.2400   33.5160   28.7080 C.3    13  LYS13       0.0298
     29  CG         3.9570   34.8510   28.0460 C.3    13  LYS13       0.0038
     30  CD         2.6170   35.4460   28.4600 C.3    13  LYS13       0.0206
     31  CE         2.6580   36.0390   29.8640 C.3    13  LYS13       0.1093
     32  NZ         1.3710   36.7210   30.1920 N.3    13  LYS13      -0.1314
     33  N          2.7010   32.5140   23.7510 N.3    15  LYS15      -0.1245
     34  CA         1.2930   32.7240   23.4690 C.3    15  LYS15       0.1561
     35  C          0.9690   32.3280   22.0450 C.2    15  LYS15       0.2260
     36  O          1.6390   32.7600   21.1020 O.2    15  LYS15      -0.2867
     37  CB         0.9390   34.1990   23.6790 C.3    15  LYS15       0.0271
     38  CG         1.1450   34.6910   25.1100 C.3    15  LYS15       0.0035
     39  CD         2.1710   35.8290   25.2170 C.3    15  LYS15       0.0206
     40  CE         3.6040   35.3600   24.9780 C.3    15  LYS15       0.1093
     41  NZ         4.6150   36.3830   25.4110 N.3    15  LYS15      -0.1314
     42  N         10.9440   37.6430   17.0930 N.3    95  ASP95      -0.1239
     43  CA         9.7330   38.1380   17.7290 C.3    95  ASP95       0.1674
     44  C          9.4590   39.6150   17.4600 C.2    95  ASP95       0.2266
     45  O          8.3130   40.0540   17.5110 O.2    95  ASP95      -0.2867
     46  CB         9.7400   37.8250   19.2390 C.3    95  ASP95       0.1410
     47  CG        10.7950   38.6080   20.0260 C.2    95  ASP95       0.3668
     48  OD1       11.8640   38.9520   19.4840 O.co2  95  ASP95      -0.2456
     49  OD2       10.5480   38.8570   21.2240 O.co2  95  ASP95      -0.2456
     50  N         10.2030   46.4690   21.8570 N.3   113  ILE113     -0.1245
     51  CA         9.7120   45.3840   22.7030 C.3   113  ILE113      0.1561
     52  C         10.4100   45.5050   24.0390 C.2   113  ILE113      0.2260
     53  O         11.6350   45.5970   24.1090 O.2   113  ILE113     -0.2867
     54  CB        10.0310   43.9720   22.1460 C.3   113  ILE113      0.0252
     55  CG1        9.2070   43.7010   20.8850 C.3   113  ILE113      0.0019
     56  CG2        9.7240   42.9110   23.2110 C.3   113  ILE113      0.0019
     57  CD1        9.4600   42.3300   20.2710 C.3   113  ILE113      0.0001
     58  N          9.9530   43.3150   27.2060 N.3   115  GLY115     -0.1210
     59  CA         9.3530   42.1940   27.9070 C.3   115  GLY115      0.1956
     60  C         10.4390   41.6370   28.8070 C.2   115  GLY115      0.2613
     61  O         11.1310   42.4110   29.4740 O.2   115  GLY115     -0.2717
     62  N         10.6110   40.3160   28.8150 N.am  116  THR116     -0.1938
     63  CA        11.6560   39.6940   29.6280 C.3   116  THR116      0.2028
     64  C         12.9750   40.3340   29.2080 C.2   116  THR116      0.2642
     65  O         13.8390   40.6310   30.0390 O.2   116  THR116     -0.2714
     66  CB        11.7240   38.1700   29.3900 C.3   116  THR116      0.1808
     67  OG1       10.4470   37.5830   29.6710 O.3   116  THR116     -0.2208
     68  CG2       12.7720   37.5340   30.2970 C.3   116  THR116      0.0379
     69  N         13.1160   40.5330   27.9020 N.am  117  GLY117     -0.1954
     70  CA        14.2930   41.1790   27.3550 C.3   117  GLY117      0.1869
     71  C         13.7730   42.3600   26.5550 C.2   117  GLY117      0.2309
     72  O         12.6050   42.7100   26.6770 O.2   117  GLY117     -0.2863
     73  N         12.3980   43.7790   31.5400 N.3   144  ALA144     -0.1245
     74  CA        11.9450   43.3540   32.8600 C.3   144  ALA144      0.1562
     75  C         13.1150   42.7410   33.6320 C.2   144  ALA144      0.2260
     76  O         13.2330   42.9230   34.8450 O.2   144  ALA144     -0.2867
     77  CB        10.7980   42.3550   32.7330 C.3   144  ALA144      0.0290
     78  N         13.5560   34.3470   33.5980 N.3   196  ASP196     -0.1239
     79  CA        12.1800   34.7610   33.8000 C.3   196  ASP196      0.1674
     80  C         11.8870   35.0800   35.2640 C.2   196  ASP196      0.2266
     81  O         11.0820   35.9610   35.5590 O.2   196  ASP196     -0.2867
     82  CB        11.2100   33.6980   33.2580 C.3   196  ASP196      0.1410
     83  CG        11.3620   32.3420   33.9390 C.2   196  ASP196      0.3668
     84  OD1       12.4410   32.0430   34.4930 O.co2 196  ASP196     -0.2456
     85  OD2       10.3890   31.5630   33.9010 O.co2 196  ASP196     -0.2456
     86  N         13.2920   38.5600   35.9890 N.3   199  ALA199     -0.1231
     87  CA        12.4290   39.4990   35.2960 C.3   199  ALA199      0.1694
     88  C         11.0650   39.6530   35.9810 C.2   199  ALA199      0.2592
     89  O         10.4670   40.7160   35.9150 O.2   199  ALA199     -0.2718
     90  CB        12.2570   39.0620   33.8420 C.3   199  ALA199      0.0304
     91  N         10.5810   38.6090   36.6550 N.am  200  SER200     -0.1952
     92  CA         9.2810   38.6920   37.3340 C.3   200  SER200      0.1924
     93  C          9.2730   39.7800   38.4050 C.2   200  SER200      0.2314
     94  O          8.2240   40.3280   38.7440 O.2   200  SER200     -0.2863
     95  CB         8.9130   37.3500   37.9910 C.3   200  SER200      0.2116
     96  OG         9.7640   37.0550   39.0890 O.3   200  SER200     -0.2180
     97  N         10.1880   42.6950   38.1450 N.3   202  ALA202     -0.1231
     98  CA         9.7970   44.0010   37.5920 C.3   202  ALA202      0.1694
     99  C          8.4010   44.4060   38.0610 C.2   202  ALA202      0.2591
    100  O          8.1340   45.5850   38.2950 O.2   202  ALA202     -0.2718
    101  CB         9.8480   43.9780   36.0550 C.3   202  ALA202      0.0304
    102  N          7.5110   43.4250   38.1920 N.am  203  LYS203     -0.1980
    103  CA         6.1430   43.6710   38.6530 C.3   203  LYS203      0.1596
    104  C          6.1560   44.2950   40.0390 C.2   203  LYS203      0.2287
    105  O          5.3650   45.1930   40.3410 O.2   203  LYS203     -0.2864
    106  CB         5.3600   42.3580   38.7220 C.3   203  LYS203      0.0298
    107  CG         4.5480   42.0490   37.4760 C.3   203  LYS203      0.0038
    108  CD         3.0540   42.2170   37.7460 C.3   203  LYS203      0.0206
    109  CE         2.7190   43.6120   38.2570 C.3   203  LYS203      0.1093
    110  NZ         1.2790   43.7410   38.6220 N.3   203  LYS203     -0.1314
    111  N          7.0850   47.9040   39.8880 N.3   206  ASP206     -0.1239
    112  CA         5.9390   48.6960   39.4700 C.3   206  ASP206      0.1674
    113  C          5.0040   48.9390   40.6540 C.2   206  ASP206      0.2266
    114  O          4.5450   50.0650   40.8710 O.2   206  ASP206     -0.2867
    115  CB         5.1860   47.9810   38.3480 C.3   206  ASP206      0.1410
    116  CG         4.0920   48.8420   37.7460 C.2   206  ASP206      0.3668
    117  OD1        4.3720   50.0100   37.3910 O.co2 206  ASP206     -0.2456
    118  OD2        2.9550   48.3490   37.6250 O.co2 206  ASP206     -0.2456
    119  N         12.5660   52.4830   37.0730 N.3   220  LEU220     -0.1245
    120  CA        11.7200   52.4370   35.8940 C.3   220  LEU220      0.1561
    121  C         12.1120   53.5380   34.9120 C.2   220  LEU220      0.2260
    122  O         12.2200   53.2950   33.7120 O.2   220  LEU220     -0.2867
    123  CB        10.2530   52.5710   36.3060 C.3   220  LEU220      0.0270
    124  CG         9.7080   51.3870   37.1090 C.3   220  LEU220      0.0019
    125  CD1        8.2920   51.7010   37.5970 C.3   220  LEU220      0.0001
    126  CD2        9.7130   50.1290   36.2280 C.3   220  LEU220      0.0001
    127  N          5.0090   44.8700   24.8810 N.3   247  GLY247     -0.1210
    128  CA         5.6630   44.1490   25.9570 C.3   247  GLY247      0.1956
    129  C          5.1130   44.3620   27.3540 C.2   247  GLY247      0.2612
    130  O          4.4710   45.3720   27.6450 O.2   247  GLY247     -0.2717
    131  N          5.4020   43.4000   28.2240 N.am  248  GLY248     -0.1942
    132  CA         4.9430   43.4430   29.6000 C.3   248  GLY248      0.2014
    133  C          5.3920   44.6630   30.3850 C.2   248  GLY248      0.2638
    134  O          4.6720   45.1150   31.2740 O.2   248  GLY248     -0.2714
    135  N          6.5670   45.2030   30.0680 N.am  249  MET249     -0.1976
    136  CA         7.0650   46.3800   30.7900 C.3   249  MET249      0.1605
    137  C          6.1340   47.5680   30.6120 C.2   249  MET249      0.2287
    138  O          6.0120   48.4160   31.4990 O.2   249  MET249     -0.2864
    139  CB         8.4640   46.7820   30.3110 C.3   249  MET249      0.0413
    140  CG         9.6040   45.9710   30.9090 C.3   249  MET249      0.0598
    141  SD         9.5320   45.8110   32.7200 S.3   249  MET249     -0.1393
    142  CE         9.5100   47.4930   33.2430 C.3   249  MET249      0.0692
    143  N          3.1310   47.5800   30.7670 N.3   251  ARG251     -0.1231
    144  CA         1.9560   47.4200   31.6150 C.3   251  ARG251      0.1694
    145  C          2.1720   48.3090   32.8400 C.2   251  ARG251      0.2592
    146  O          1.2490   48.5690   33.6150 O.2   251  ARG251     -0.2718
    147  CB         1.7680   45.9570   32.0230 C.3   251  ARG251      0.0321
    148  CG         1.1730   45.1000   30.9070 C.3   251  ARG251      0.0489
    149  CD         0.3240   43.9660   31.4590 C.3   251  ARG251      0.2205
    150  NE         1.0260   42.6870   31.4610 N.pl3 251  ARG251     -0.0865
    151  CZ         0.5500   41.5760   32.0160 C.cat 251  ARG251      0.5346
    152  NH1        1.2570   40.4520   31.9680 N.pl3 251  ARG251      0.1354
    153  NH2       -0.6290   41.5880   32.6260 N.pl3 251  ARG251      0.1354
    154  N          3.4080   48.7710   33.0110 N.am  252  SER252     -0.1952
    155  CA         3.7350   49.6820   34.1050 C.3   252  SER252      0.1924
    156  C          3.3720   51.0720   33.5970 C.2   252  SER252      0.2314
    157  O          3.9520   51.5460   32.6190 O.2   252  SER252     -0.2863
    158  CB         5.2330   49.6410   34.4210 C.3   252  SER252      0.2116
    159  OG         5.5960   50.7250   35.2640 O.3   252  SER252     -0.2180
@<TRIPOS>BOND
     1    42    43    1
     2    44    45    2
     3    44    43    1
     4    43    46    1
     5    46    47    1
     6    48    47   ar
     7     1     2    1
     8    47    49   ar
     9     2     5    1
    10     2     3    1
    11    57    55    1
    12     5     6    1
    13    55    54    1
    14     8     6   ar
    15    36    35    2
    16     6     7   ar
    17     3     4    2
    18    50    51    1
    19    35    34    1
    20    54    51    1
    21    54    56    1
    22    51    52    1
    23    34    37    1
    24    34    33    1
    25    37    38    1
    26     9    10    1
    27    52    53    2
    28    10    11    1
    29   127   128    1
    30    40    39    1
    31    40    41    1
    32    38    39    1
    33    11    12    2
    34    11    13   am
    35   128   129    1
    36    27    26    2
    37    13    14    1
    38    71    72    2
    39    71    70    1
    40    26    25    1
    41    58    59    1
    42   129   130    2
    43   129   131   am
    44    70    69    1
    45    14    15    1
    46    69    64   am
    47    59    60    1
    48    29    30    1
    49    29    28    1
    50   131   132    1
    51    25    24    1
    52    25    28    1
    53    30    31    1
    54    24    19   am
    55    60    62   am
    56    60    61    2
    57    62    63    1
    58    15    17   am
    59    15    16    2
    60    17    18    1
    61    64    63    1
    62    64    65    2
    63    66    63    1
    64    66    67    1
    65    66    68    1
    66   132   133    1
    67    19    18    1
    68    19    20    2
    69    31    32    1
    70   135   133   am
    71   135   136    1
    72    18    21    1
    73   139   136    1
    74   139   140    1
    75   133   134    2
    76   137   136    1
    77   137   138    2
    78   143   144    1
    79    21    22    1
    80    21    23    1
    81   148   149    1
    82   148   147    1
    83   140   141    1
    84   149   150    1
    85   150   151    2
    86    73    74    1
    87   144   147    1
    88   144   145    1
    89   152   151    1
    90   151   153    1
    91   157   156    2
    92   141   142    1
    93    77    74    1
    94   145   154   am
    95   145   146    2
    96    74    75    1
    97   154   155    1
    98    82    79    1
    99    82    83    1
   100   156   155    1
   101    78    79    1
   102    75    76    2
   103   122   121    2
   104    79    80    1
   105    90    87    1
   106    85    83   ar
   107    83    84   ar
   108   155   158    1
   109   158   159    1
   110   121   120    1
   111    80    81    2
   112    87    88    1
   113    87    86    1
   114   120   123    1
   115   120   119    1
   116    89    88    2
   117    88    91   am
   118   101    98    1
   119   126   124    1
   120   123   124    1
   121    91    92    1
   122   124   125    1
   123    92    95    1
   124    92    93    1
   125   117   116   ar
   126   107   108    1
   127   107   106    1
   128    98    99    1
   129    98    97    1
   130   118   116   ar
   131   108   109    1
   132   116   115    1
   133    95    96    1
   134    99   102   am
   135    99   100    2
   136   102   103    1
   137   109   110    1
   138   115   112    1
   139    93    94    2
   140   103   106    1
   141   103   104    1
   142   112   111    1
   143   112   113    1
   144   104   105    2
   145   113   114    2
