@<TRIPOS>MOLECULE
tmp/2e2qA00.pdb
 108 102 0 0 0
SMALL
GASTEIGER

@<TRIPOS>ATOM
      1  N         12.1900   31.1150   24.5060 N.3    35  ASN35      -0.1240
      2  CA        13.5550   31.5880   24.2590 C.3    35  ASN35       0.1653
      3  C         14.5070   30.4960   24.7650 C.2    35  ASN35       0.2266
      4  O         14.7410   30.3880   25.9710 O.2    35  ASN35      -0.2867
      5  CB        13.7980   32.8980   25.0300 C.3    35  ASN35       0.1155
      6  CG        15.1510   33.5340   24.7190 C.2    35  ASN35       0.2627
      7  OD1       16.1160   32.8450   24.3840 O.2    35  ASN35      -0.2716
      8  ND2       15.2280   34.8610   24.8510 N.am   35  ASN35      -0.0877
      9  N         17.5050   30.3100   25.0040 N.3    37  HIS37      -0.1241
     10  CA        18.6590   30.7940   25.7470 C.3    37  HIS37       0.1621
     11  C         18.3160   30.8230   27.2290 C.2    37  HIS37       0.2264
     12  O         19.2010   30.7570   28.0840 O.2    37  HIS37      -0.2867
     13  CB        19.0440   32.1900   25.2710 C.3    37  HIS37       0.0745
     14  CG        19.6540   32.2100   23.9060 C.ar   37  HIS37       0.0817
     15  ND1       19.3700   33.1870   22.9770 N.ar   37  HIS37      -0.2268
     16  CD2       20.5370   31.3720   23.3140 C.ar   37  HIS37       0.1154
     17  CE1       20.0490   32.9490   21.8700 C.ar   37  HIS37       0.1986
     18  NE2       20.7660   31.8540   22.0480 N.ar   37  HIS37      -0.2212
     19  N         11.7220   34.9020   20.4570 N.3    68  ALA68      -0.1231
     20  CA        12.6990   35.6810   21.2000 C.3    68  ALA68       0.1694
     21  C         13.9450   34.8000   21.2860 C.2    68  ALA68       0.2592
     22  O         13.8320   33.5930   21.4800 O.2    68  ALA68      -0.2718
     23  CB        12.1700   35.9740   22.5990 C.3    68  ALA68       0.0304
     24  N         15.1240   35.3890   21.1280 N.am   69  GLY69      -0.1957
     25  CA        16.3370   34.5990   21.2190 C.3    69  GLY69       0.1869
     26  C         17.0180   34.2770   19.9020 C.2    69  GLY69       0.2309
     27  O         18.1400   33.7950   19.9110 O.2    69  GLY69      -0.2863
     28  N         19.0440   35.4620   17.7990 N.3    71  ASP71      -0.1239
     29  CA        19.9620   36.5960   17.7260 C.3    71  ASP71       0.1674
     30  C         21.2880   36.3260   17.0250 C.2    71  ASP71       0.2266
     31  O         22.2460   37.0770   17.2080 O.2    71  ASP71      -0.2867
     32  CB        20.2520   37.0740   19.1450 C.3    71  ASP71       0.1410
     33  CG        18.9980   37.1990   19.9760 C.2    71  ASP71       0.3668
     34  OD1       19.0830   37.0400   21.2120 O.co2  71  ASP71      -0.2456
     35  OD2       17.9300   37.4650   19.3920 O.co2  71  ASP71      -0.2456
     36  N         11.8570   36.5410   13.8520 N.3    94  HIS94      -0.1226
     37  CA        12.2910   37.0380   15.1490 C.3    94  HIS94       0.1752
     38  C         11.0210   37.6040   15.7670 C.2    94  HIS94       0.2596
     39  O         10.1120   38.0110   15.0390 O.2    94  HIS94      -0.2718
     40  CB        13.3260   38.1440   14.9710 C.3    94  HIS94       0.0759
     41  CG        13.8260   38.7060   16.2620 C.ar   94  HIS94       0.0818
     42  ND1       13.7480   40.0470   16.5690 N.ar   94  HIS94      -0.2268
     43  CD2       14.4090   38.1080   17.3290 C.ar   94  HIS94       0.1154
     44  CE1       14.2610   40.2510   17.7700 C.ar   94  HIS94       0.1986
     45  NE2       14.6680   39.0910   18.2520 N.ar   94  HIS94      -0.2212
     46  N         10.9440   37.6430   17.0930 N.am   95  ASP95      -0.1974
     47  CA         9.7330   38.1380   17.7290 C.3    95  ASP95       0.1709
     48  C          9.4590   39.6150   17.4600 C.2    95  ASP95       0.2293
     49  O          8.3130   40.0540   17.5110 O.2    95  ASP95      -0.2864
     50  CB         9.7400   37.8250   19.2390 C.3    95  ASP95       0.1436
     51  CG        10.7950   38.6080   20.0260 C.2    95  ASP95       0.3671
     52  OD1       11.8640   38.9520   19.4840 O.co2  95  ASP95      -0.2456
     53  OD2       10.5480   38.8570   21.2240 O.co2  95  ASP95      -0.2456
     54  N         10.2030   46.4690   21.8570 N.3   113  ILE113     -0.1245
     55  CA         9.7120   45.3840   22.7030 C.3   113  ILE113      0.1561
     56  C         10.4100   45.5050   24.0390 C.2   113  ILE113      0.2260
     57  O         11.6350   45.5970   24.1090 O.2   113  ILE113     -0.2867
     58  CB        10.0310   43.9720   22.1460 C.3   113  ILE113      0.0252
     59  CG1        9.2070   43.7010   20.8850 C.3   113  ILE113      0.0019
     60  CG2        9.7240   42.9110   23.2110 C.3   113  ILE113      0.0019
     61  CD1        9.4600   42.3300   20.2710 C.3   113  ILE113      0.0001
     62  N         13.1160   40.5330   27.9020 N.3   117  GLY117     -0.1210
     63  CA        14.2930   41.1790   27.3550 C.3   117  GLY117      0.1956
     64  C         13.7730   42.3600   26.5550 C.2   117  GLY117      0.2613
     65  O         12.6050   42.7100   26.6770 O.2   117  GLY117     -0.2717
     66  N         14.6100   42.9770   25.7320 N.am  118  SER118     -0.1938
     67  CA        14.1460   44.1060   24.9470 C.3   118  SER118      0.2055
     68  C         14.8500   44.2080   23.6080 C.2   118  SER118      0.2642
     69  O         15.9290   43.6520   23.4050 O.2   118  SER118     -0.2714
     70  CB        14.3490   45.4160   25.7120 C.3   118  SER118      0.2130
     71  OG        15.7290   45.6950   25.8720 O.3   118  SER118     -0.2179
     72  N         14.2280   44.9400   22.6950 N.am  119  VAL119     -0.1977
     73  CA        14.8090   45.1300   21.3820 C.3   119  VAL119      0.1596
     74  C         14.0830   46.2620   20.6700 C.2   119  VAL119      0.2287
     75  O         12.9460   46.5880   21.0020 O.2   119  VAL119     -0.2864
     76  CB        14.6940   43.8200   20.5350 C.3   119  VAL119      0.0276
     77  CG1       13.2260   43.5230   20.2300 C.3   119  VAL119      0.0022
     78  CG2       15.5000   43.9540   19.2280 C.3   119  VAL119      0.0022
     79  N         18.5890   43.7790   21.8110 N.3   133  GLY133     -0.1225
     80  CA        17.9810   42.4820   21.5570 C.3   133  GLY133      0.1811
     81  C         18.9870   41.3620   21.3710 C.2   133  GLY133      0.2280
     82  O         18.8290   40.5170   20.4830 O.2   133  GLY133     -0.2866
     83  N         20.2300   39.4050   24.2440 N.3   135  GLY135     -0.1210
     84  CA        20.4020   38.7200   25.5180 C.3   135  GLY135      0.1956
     85  C         20.5320   39.6010   26.7470 C.2   135  GLY135      0.2611
     86  O         20.8470   40.7890   26.6490 O.2   135  GLY135     -0.2717
     87  N         20.3270   38.9960   27.9130 N.am  136  TRP136     -0.1976
     88  CA        20.3480   39.7220   29.1740 C.3   136  TRP136      0.1640
     89  C         21.6980   40.2310   29.6490 C.2   136  TRP136      0.2290
     90  O         21.7580   41.2600   30.3170 O.2   136  TRP136     -0.2864
     91  CB        19.7020   38.8840   30.2920 C.3   136  TRP136      0.0576
     92  CG        20.3410   37.5330   30.5260 C.ar  136  TRP136      0.0006
     93  CD1       19.9920   36.3450   29.9430 C.ar  136  TRP136      0.0946
     94  CD2       21.4460   37.2440   31.3910 C.ar  136  TRP136      0.0152
     95  NE1       20.8130   35.3350   30.3940 N.ar  136  TRP136     -0.2442
     96  CE2       21.7150   35.8600   31.2820 C.ar  136  TRP136      0.0810
     97  CE3       22.2380   38.0220   32.2500 C.ar  136  TRP136      0.0012
     98  CZ2       22.7460   35.2360   32.0000 C.ar  136  TRP136      0.0191
     99  CZ3       23.2670   37.3990   32.9670 C.ar  136  TRP136      0.0001
    100  CH2       23.5100   36.0210   32.8350 C.ar  136  TRP136      0.0015
    101  N         19.4110   44.1190   26.5130 N.3   140  ASP140     -0.1239
    102  CA        18.1240   44.1590   27.2060 C.3   140  ASP140      0.1674
    103  C         17.9300   45.3470   28.1560 C.2   140  ASP140      0.2266
    104  O         17.3380   45.2150   29.2360 O.2   140  ASP140     -0.2867
    105  CB        17.8650   42.8290   27.9300 C.3   140  ASP140      0.1410
    106  CG        17.6070   41.6840   26.9500 C.2   140  ASP140      0.3668
    107  OD1       17.4410   41.9730   25.7470 O.co2 140  ASP140     -0.2456
    108  OD2       17.5630   40.5080   27.3650 O.co2 140  ASP140     -0.2456
@<TRIPOS>BOND
     1    36    37    1
     2    40    37    1
     3    40    41    1
     4    39    38    2
     5    37    38    1
     6    38    46   am
     7    41    42   ar
     8    41    43   ar
     9    42    44   ar
    10    30    31    2
    11    30    29    1
    12    46    47    1
    13    43    45   ar
    14    48    49    2
    15    48    47    1
    16    29    28    1
    17    29    32    1
    18    47    50    1
    19    44    45   ar
    20    32    33    1
    21    78    76    1
    22    50    51    1
    23    35    33   ar
    24    52    51   ar
    25    26    27    2
    26    26    25    1
    27    33    34   ar
    28    51    53   ar
    29    77    76    1
    30    61    59    1
    31    19    20    1
    32    82    81    2
    33    76    73    1
    34    74    75    2
    35    74    73    1
    36    59    58    1
    37    24    25    1
    38    24    21   am
    39    20    21    1
    40    20    23    1
    41    21    22    2
    42    81    80    1
    43    73    72    1
    44    80    79    1
    45    54    55    1
    46    17    18   ar
    47    17    15   ar
    48    18    16   ar
    49    58    55    1
    50    58    60    1
    51    72    68   am
    52    55    56    1
    53    15    14   ar
    54    16    14   ar
    55    69    68    2
    56    68    67    1
    57    14    13    1
    58    56    57    2
    59    83    84    1
    60     2     1    1
    61     2     3    1
    62     2     5    1
    63     7     6    2
    64     6     8   am
    65     6     5    1
    66     3     4    2
    67    67    70    1
    68    67    66    1
    69     9    10    1
    70    13    10    1
    71    84    85    1
    72    70    71    1
    73    66    64   am
    74   107   106   ar
    75    10    11    1
    76   101   102    1
    77    64    65    2
    78    64    63    1
    79    86    85    2
    80    85    87   am
    81   106   108   ar
    82   106   105    1
    83   102   105    1
    84   102   103    1
    85    11    12    2
    86    63    62    1
    87    87    88    1
    88   103   104    2
    89    88    89    1
    90    88    91    1
    91    89    90    2
    92    93    95   ar
    93    93    92   ar
    94    91    92    1
    95    95    96   ar
    96    92    94   ar
    97    96    94   ar
    98    96    98   ar
    99    94    97   ar
   100    98   100   ar
   101    97    99   ar
   102   100    99   ar
