@<TRIPOS>MOLECULE
tmp/2e2rA00.pdb
 149 138 0 0 0
SMALL
GASTEIGER

@<TRIPOS>ATOM
      1  N        -23.2310   -4.3690  -25.5330 N.3    37  LEU37      -0.1231
      2  CA       -21.7900   -4.4910  -25.7630 C.3    37  LEU37       0.1693
      3  C        -20.9680   -3.8380  -24.6630 C.2    37  LEU37       0.2592
      4  O        -19.9690   -4.4100  -24.2290 O.2    37  LEU37      -0.2718
      5  CB       -21.4150   -3.9060  -27.1280 C.3    37  LEU37       0.0284
      6  CG       -21.8700   -4.7540  -28.3050 C.3    37  LEU37       0.0019
      7  CD1      -21.7110   -3.8850  -29.5470 C.3    37  LEU37       0.0001
      8  CD2      -21.0880   -6.0450  -28.4300 C.3    37  LEU37       0.0001
      9  N        -21.3620   -2.6520  -24.2120 N.am   38  CYS38      -0.1970
     10  CA       -20.6070   -1.9610  -23.1600 C.3    38  CYS38       0.1712
     11  C        -20.7560   -2.6400  -21.8190 C.2    38  CYS38       0.2296
     12  O        -19.8440   -2.6120  -21.0040 O.2    38  CYS38      -0.2864
     13  CB       -20.9940   -0.4960  -23.0710 C.3    38  CYS38       0.0983
     14  SG       -20.5140    0.4380  -24.5480 S.3    38  CYS38      -0.0798
     15  N        -21.1470   -5.9420  -21.4750 N.3    40  LEU40      -0.1231
     16  CA       -20.2900   -7.1000  -21.6260 C.3    40  LEU40       0.1693
     17  C        -18.8380   -6.6810  -21.3960 C.2    40  LEU40       0.2591
     18  O        -18.1250   -7.3490  -20.6670 O.2    40  LEU40      -0.2718
     19  CB       -20.4780   -7.6970  -23.0210 C.3    40  LEU40       0.0284
     20  CG       -19.5120   -8.7880  -23.4710 C.3    40  LEU40       0.0019
     21  CD1      -19.6160  -10.0270  -22.6270 C.3    40  LEU40       0.0001
     22  CD2      -19.7360   -9.1390  -24.9170 C.3    40  LEU40       0.0001
     23  N        -18.4180   -5.5800  -22.0040 N.am   41  ALA41      -0.1980
     24  CA       -17.0370   -5.0840  -21.8380 C.3    41  ALA41       0.1597
     25  C        -16.7240   -4.8080  -20.3760 C.2    41  ALA41       0.2287
     26  O        -15.6480   -5.1480  -19.8840 O.2    41  ALA41      -0.2864
     27  CB       -16.8080   -3.8160  -22.6850 C.3    41  ALA41       0.0319
     28  N        -16.0680   -8.0160  -18.6810 N.3    44  GLU44      -0.1245
     29  CA       -14.8010   -8.5630  -19.1560 C.3    44  GLU44       0.1567
     30  C        -13.6300   -7.8340  -18.5280 C.2    44  GLU44       0.2260
     31  O        -12.6100   -8.4680  -18.2240 O.2    44  GLU44      -0.2867
     32  CB       -14.6900   -8.4860  -20.6740 C.3    44  GLU44       0.0388
     33  CG       -15.5820   -9.4490  -21.4020 C.3    44  GLU44       0.1160
     34  CD       -15.2730   -9.4510  -22.8660 C.2    44  GLU44       0.3649
     35  OE1      -14.2380  -10.0320  -23.2150 O.co2  44  GLU44      -0.2457
     36  OE2      -16.0480   -8.8600  -23.6380 O.co2  44  GLU44      -0.2457
     37  N         -8.5960   -1.8710  -24.5320 N.3    75  MET75      -0.1245
     38  CA        -9.3900   -2.0080  -25.7310 C.3    75  MET75       0.1570
     39  C         -8.7320   -3.0370  -26.6540 C.2    75  MET75       0.2261
     40  O         -9.3900   -3.8270  -27.3160 O.2    75  MET75      -0.2867
     41  CB        -9.5480   -0.6580  -26.4250 C.3    75  MET75       0.0387
     42  CG       -10.3320   -0.7540  -27.6940 C.3    75  MET75       0.0595
     43  SD       -12.0960   -1.1680  -27.4470 S.3    75  MET75      -0.1393
     44  CE       -12.6210    0.3940  -26.9520 C.3    75  MET75       0.0692
     45  N         -9.6390   -6.4520  -25.2730 N.3    78  LEU78      -0.1231
     46  CA       -11.0300   -6.7700  -25.5940 C.3    78  LEU78       0.1693
     47  C        -11.1750   -7.1610  -27.0660 C.2    78  LEU78       0.2591
     48  O        -11.7720   -8.1760  -27.3910 O.2    78  LEU78      -0.2718
     49  CB       -11.9420   -5.5830  -25.2720 C.3    78  LEU78       0.0284
     50  CG       -12.2590   -5.2900  -23.8090 C.3    78  LEU78       0.0019
     51  CD1      -13.0300   -4.0130  -23.7240 C.3    78  LEU78       0.0001
     52  CD2      -13.0070   -6.4680  -23.1440 C.3    78  LEU78       0.0001
     53  N        -10.5920   -6.3620  -27.9670 N.am   79  ILE79      -0.1980
     54  CA       -10.6980   -6.6320  -29.3830 C.3    79  ILE79       0.1595
     55  C         -9.9870   -7.9350  -29.7800 C.2    79  ILE79       0.2287
     56  O        -10.4980   -8.7280  -30.5520 O.2    79  ILE79      -0.2864
     57  CB       -10.2030   -5.4080  -30.2060 C.3    79  ILE79       0.0276
     58  CG1      -11.2290   -4.2640  -30.0420 C.3    79  ILE79       0.0022
     59  CG2      -10.0180   -5.8240  -31.6640 C.3    79  ILE79       0.0022
     60  CD1      -10.8200   -2.9020  -30.7040 C.3    79  ILE79       0.0001
     61  N        -12.4580  -10.7870  -29.0860 N.3    82  VAL82      -0.1245
     62  CA       -13.5190  -11.0280  -30.0730 C.3    82  VAL82       0.1561
     63  C        -12.9200  -11.5730  -31.3900 C.2    82  VAL82       0.2260
     64  O        -13.4780  -12.4570  -32.0160 O.2    82  VAL82      -0.2867
     65  CB       -14.4700   -9.8340  -30.2960 C.3    82  VAL82       0.0252
     66  CG1      -13.7770   -8.5700  -30.7480 C.3    82  VAL82       0.0019
     67  CG2      -15.5790  -10.2120  -31.2950 C.3    82  VAL82       0.0019
     68  N        -12.2480  -15.2930  -30.8630 N.3    85  ARG85      -0.1245
     69  CA       -13.5060  -16.0380  -30.7810 C.3    85  ARG85       0.1563
     70  C        -14.1550  -16.1850  -32.1550 C.2    85  ARG85       0.2260
     71  O        -14.9970  -17.0690  -32.3680 O.2    85  ARG85      -0.2867
     72  CB       -14.4630  -15.3740  -29.8160 C.3    85  ARG85       0.0307
     73  CG       -14.0260  -15.4300  -28.3650 C.3    85  ARG85       0.0489
     74  CD       -15.0680  -14.9620  -27.3650 C.3    85  ARG85       0.2205
     75  NE       -15.4520  -13.5590  -27.5110 N.pl3  85  ARG85      -0.0865
     76  CZ       -14.8560  -12.5250  -26.9350 C.cat  85  ARG85       0.5346
     77  NH1      -13.7550  -12.6840  -26.2150 N.pl3  85  ARG85       0.1354
     78  NH2      -15.3440  -11.3040  -27.1090 N.pl3  85  ARG85       0.1354
     79  N        -18.9100  -11.7560  -30.1900 N.3    95  TYR95      -0.1241
     80  CA       -18.6900  -11.0120  -28.9630 C.3    95  TYR95       0.1605
     81  C        -18.9090  -11.9230  -27.7510 C.2    95  TYR95       0.2264
     82  O        -18.1920  -11.8370  -26.7640 O.2    95  TYR95      -0.2867
     83  CB       -19.5470   -9.7270  -28.9180 C.3    95  TYR95       0.0534
     84  CG       -18.9480   -8.6750  -29.8230 C.ar   95  TYR95      -0.0201
     85  CD1      -19.3350   -8.5470  -31.1550 C.ar   95  TYR95      -0.0009
     86  CD2      -17.9130   -7.8730  -29.3670 C.ar   95  TYR95      -0.0009
     87  CE1      -18.7070   -7.6070  -32.0030 C.ar   95  TYR95       0.0417
     88  CE2      -17.2850   -6.9490  -30.1960 C.ar   95  TYR95       0.0417
     89  CZ       -17.6830   -6.8170  -31.5060 C.ar   95  TYR95       0.1957
     90  OH       -17.0100   -5.9010  -32.2960 O.3    95  TYR95      -0.2866
     91  N        -21.6820    0.5750  -36.0990 N.3   111  LEU111     -0.1245
     92  CA       -20.3560   -0.0100  -35.9580 C.3   111  LEU111      0.1561
     93  C        -19.8400   -0.6700  -37.2380 C.2   111  LEU111      0.2260
     94  O        -18.9630   -1.5210  -37.1690 O.2   111  LEU111     -0.2867
     95  CB       -20.3680   -1.0670  -34.8300 C.3   111  LEU111      0.0270
     96  CG       -20.6810   -0.5840  -33.4150 C.3   111  LEU111      0.0019
     97  CD1      -20.8980   -1.7540  -32.4380 C.3   111  LEU111      0.0001
     98  CD2      -19.6010    0.3390  -32.9190 C.3   111  LEU111      0.0001
     99  N        -15.9740    0.0220  -37.7850 N.3   114  LEU114     -0.1231
    100  CA       -15.1370   -0.5250  -36.7190 C.3   114  LEU114      0.1693
    101  C        -15.1670   -2.0420  -36.7740 C.2   114  LEU114      0.2592
    102  O        -14.1280   -2.6910  -36.7000 O.2   114  LEU114     -0.2718
    103  CB       -15.5860   -0.0440  -35.3270 C.3   114  LEU114      0.0284
    104  CG       -15.0280    1.2830  -34.8110 C.3   114  LEU114      0.0019
    105  CD1      -15.6570    1.5360  -33.4560 C.3   114  LEU114      0.0001
    106  CD2      -13.4880    1.2400  -34.7030 C.3   114  LEU114      0.0001
    107  N        -16.3560   -2.6270  -36.9090 N.am  115  ASN115     -0.1974
    108  CA       -16.4390   -4.0780  -36.9990 C.3   115  ASN115      0.1688
    109  C        -15.7820   -4.6070  -38.2800 C.2   115  ASN115      0.2292
    110  O        -15.2200   -5.7020  -38.2920 O.2   115  ASN115     -0.2864
    111  CB       -17.8790   -4.5660  -36.8600 C.3   115  ASN115      0.1181
    112  CG       -18.3430   -4.6740  -35.4000 C.2   115  ASN115      0.2629
    113  OD1      -17.5810   -4.4320  -34.4470 O.2   115  ASN115     -0.2716
    114  ND2      -19.6070   -5.0190  -35.2300 N.am  115  ASN115     -0.0877
    115  N        -12.2020   -4.9270  -37.3980 N.3   118  ILE118     -0.1245
    116  CA       -12.0130   -6.1140  -36.5850 C.3   118  ILE118      0.1561
    117  C        -12.0310   -7.3600  -37.4780 C.2   118  ILE118      0.2260
    118  O        -11.2540   -8.2770  -37.2960 O.2   118  ILE118     -0.2867
    119  CB       -13.0840   -6.1550  -35.4480 C.3   118  ILE118      0.0252
    120  CG1      -12.8910   -4.9530  -34.5210 C.3   118  ILE118      0.0019
    121  CG2      -13.0080   -7.4650  -34.6490 C.3   118  ILE118      0.0019
    122  CD1      -13.8700   -4.8830  -33.3550 C.3   118  ILE118      0.0001
    123  N        -11.5740    2.7260  -31.9060 N.3   200  ALA200     -0.1245
    124  CA       -12.6810    2.2550  -31.0670 C.3   200  ALA200      0.1562
    125  C        -12.8080    3.0840  -29.7780 C.2   200  ALA200      0.2260
    126  O        -13.9220    3.4060  -29.3180 O.2   200  ALA200     -0.2867
    127  CB       -12.5390    0.7780  -30.7630 C.3   200  ALA200      0.0290
    128  N        -16.2460    5.1530  -28.8280 N.3   204  PHE204     -0.1241
    129  CA       -17.0300    4.9450  -27.6310 C.3   204  PHE204      0.1605
    130  C        -16.9200    6.1230  -26.6690 C.2   204  PHE204      0.2264
    131  O        -17.8350    6.3550  -25.8830 O.2   204  PHE204     -0.2867
    132  CB       -16.6970    3.5900  -26.9910 C.3   204  PHE204      0.0534
    133  CG       -17.3820    2.4610  -27.6750 C.ar  204  PHE204     -0.0203
    134  CD1      -16.7840    1.7670  -28.7260 C.ar  204  PHE204     -0.0042
    135  CD2      -18.6940    2.1290  -27.3190 C.ar  204  PHE204     -0.0042
    136  CE1      -17.4620    0.7610  -29.3810 C.ar  204  PHE204     -0.0003
    137  CE2      -19.3570    1.1250  -27.9690 C.ar  204  PHE204     -0.0003
    138  CZ       -18.7600    0.4390  -29.0000 C.ar  204  PHE204     -0.0000
    139  N        -15.9260    0.4370  -17.0850 N.3   219  PHE219     -0.1241
    140  CA       -15.8350    0.7720  -18.5060 C.3   219  PHE219      0.1605
    141  C        -15.5720    2.2750  -18.6370 C.2   219  PHE219      0.2264
    142  O        -14.7430    2.7070  -19.4290 O.2   219  PHE219     -0.2867
    143  CB       -17.1410    0.3950  -19.2000 C.3   219  PHE219      0.0534
    144  CG       -17.1240    0.5380  -20.6920 C.ar  219  PHE219     -0.0203
    145  CD1      -16.5560   -0.4360  -21.4890 C.ar  219  PHE219     -0.0042
    146  CD2      -17.7190    1.6290  -21.3040 C.ar  219  PHE219     -0.0042
    147  CE1      -16.5520   -0.3090  -22.8740 C.ar  219  PHE219     -0.0003
    148  CE2      -17.7130    1.7620  -22.6760 C.ar  219  PHE219     -0.0003
    149  CZ       -17.1280    0.7920  -23.4630 C.ar  219  PHE219     -0.0000
@<TRIPOS>BOND
     1   110   109    2
     2   109   108    1
     3    99   100    1
     4   117   118    2
     5   117   116    1
     6   115   116    1
     7    93    94    2
     8    93    92    1
     9   108   107    1
    10   108   111    1
    11   107   101   am
    12   111   112    1
    13   101   100    1
    14   101   102    2
    15   100   103    1
    16   116   119    1
    17    91    92    1
    18    92    95    1
    19   119   121    1
    20   119   120    1
    21   112   114   am
    22   112   113    2
    23   103   104    1
    24    95    96    1
    25   104   106    1
    26   104   105    1
    27   120   122    1
    28    96    98    1
    29    96    97    1
    30    71    70    2
    31    90    89    1
    32    70    69    1
    33    64    63    2
    34    87    89   ar
    35    87    85   ar
    36   123   124    1
    37    59    57    1
    38    89    88   ar
    39    63    62    1
    40    67    65    1
    41    85    84   ar
    42   124   127    1
    43   124   125    1
    44    68    69    1
    45    69    72    1
    46    66    65    1
    47    60    58    1
    48    56    55    2
    49    65    62    1
    50    57    58    1
    51    57    54    1
    52    88    86   ar
    53    79    80    1
    54    62    61    1
    55    84    86   ar
    56    84    83    1
    57    72    73    1
    58    55    54    1
    59   125   126    2
    60     7     6    1
    61    54    53    1
    62   136   138   ar
    63   136   134   ar
    64   138   137   ar
    65    80    83    1
    66    80    81    1
    67   128   129    1
    68   134   133   ar
    69     8     6    1
    70    73    74    1
    71     6     5    1
    72   137   135   ar
    73    53    47   am
    74    81    82    2
    75    42    43    1
    76    42    41    1
    77   133   135   ar
    78   133   132    1
    79   129   132    1
    80   129   130    1
    81    75    74    1
    82    75    76    2
    83    43    44    1
    84    48    47    2
    85    40    39    2
    86     5     2    1
    87    78    76    1
    88    47    46    1
    89    76    77    1
    90   130   131    2
    91    39    38    1
    92    41    38    1
    93     2     1    1
    94     2     3    1
    95    38    37    1
    96    46    45    1
    97    46    49    1
    98    49    50    1
    99    22    20    1
   100     3     4    2
   101     3     9   am
   102    14    13    1
   103     9    10    1
   104    50    51    1
   105    50    52    1
   106    36    34   ar
   107    20    19    1
   108    20    21    1
   109   149   147   ar
   110   149   148   ar
   111    35    34   ar
   112    10    13    1
   113    10    11    1
   114    19    16    1
   115   147   145   ar
   116    34    33    1
   117    27    24    1
   118   148   146   ar
   119    23    24    1
   120    23    17   am
   121    24    25    1
   122    11    12    2
   123    16    15    1
   124    16    17    1
   125   145   144   ar
   126    33    32    1
   127    17    18    2
   128   146   144   ar
   129   144   143    1
   130    32    29    1
   131    25    26    2
   132   142   141    2
   133   143   140    1
   134    29    28    1
   135    29    30    1
   136   141   140    1
   137    30    31    2
   138   140   139    1
