@<TRIPOS>MOLECULE
tmp/2e33A00.pdb
 106 107 0 0 0
SMALL
GASTEIGER

@<TRIPOS>ATOM
      1  N         21.2300  -59.7310  -50.0280 N.3    36  ASP36      -0.1225
      2  CA        22.0090  -58.6410  -50.6660 C.3    36  ASP36       0.1805
      3  C         22.7910  -57.7590  -49.6850 C.2    36  ASP36       0.2597
      4  O         22.2010  -57.0090  -48.9090 O.2    36  ASP36      -0.2718
      5  CB        21.0610  -57.7710  -51.4780 C.3    36  ASP36       0.1424
      6  CG        21.0040  -58.1790  -52.9370 C.2    36  ASP36       0.3668
      7  OD1       21.8100  -59.0600  -53.3540 O.co2  36  ASP36      -0.2456
      8  OD2       20.1750  -57.5990  -53.6900 O.co2  36  ASP36      -0.2456
      9  N         24.1130  -57.8680  -49.6880 N.am   37  ASN37      -0.1974
     10  CA        24.9450  -57.0500  -48.8070 C.3    37  ASN37       0.1688
     11  C         24.6600  -57.1710  -47.3300 C.2    37  ASN37       0.2292
     12  O         24.6700  -56.1420  -46.6110 O.2    37  ASN37      -0.2864
     13  CB        24.8270  -55.5570  -49.1620 C.3    37  ASN37       0.1181
     14  CG        25.9420  -55.0750  -50.0590 C.2    37  ASN37       0.2629
     15  OD1       26.8330  -54.3590  -49.6180 O.2    37  ASN37      -0.2716
     16  ND2       25.9000  -55.4620  -51.3150 N.am   37  ASN37      -0.0877
     17  N         12.1840  -47.2430  -46.8730 N.3    55  PHE55      -0.1241
     18  CA        12.7350  -45.9380  -46.5680 C.3    55  PHE55       0.1605
     19  C         11.7820  -45.1380  -45.7360 C.2    55  PHE55       0.2264
     20  O         12.1090  -44.0610  -45.3550 O.2    55  PHE55      -0.2867
     21  CB        13.1860  -45.1930  -47.8400 C.3    55  PHE55       0.0534
     22  CG        12.0730  -45.0140  -48.8890 C.ar   55  PHE55      -0.0203
     23  CD1       11.0970  -44.0120  -48.7470 C.ar   55  PHE55      -0.0042
     24  CD2       12.0140  -45.8270  -50.0070 C.ar   55  PHE55      -0.0042
     25  CE1       10.0600  -43.8660  -49.6910 C.ar   55  PHE55      -0.0003
     26  CE2       10.9960  -45.6660  -50.9670 C.ar   55  PHE55      -0.0003
     27  CZ        10.0250  -44.7080  -50.8070 C.ar   55  PHE55      -0.0000
     28  N         22.0170  -53.8120  -43.4890 N.3    92  ARG92      -0.1245
     29  CA        22.8610  -54.0820  -44.5980 C.3    92  ARG92       0.1563
     30  C         24.2030  -53.4420  -44.2850 C.2    92  ARG92       0.2260
     31  O         24.3090  -52.5420  -43.4320 O.2    92  ARG92      -0.2867
     32  CB        22.2360  -53.5180  -45.8570 C.3    92  ARG92       0.0307
     33  CG        20.7860  -54.1040  -46.1430 C.3    92  ARG92       0.0489
     34  CD        20.2590  -53.7710  -47.5430 C.3    92  ARG92       0.2205
     35  NE        21.3790  -53.5660  -48.4770 N.pl3  92  ARG92      -0.0865
     36  CZ        21.5550  -54.1470  -49.6730 C.cat  92  ARG92       0.5346
     37  NH1       20.6970  -55.0420  -50.1560 N.pl3  92  ARG92       0.1354
     38  NH2       22.6150  -53.8150  -50.4200 N.pl3  92  ARG92       0.1354
     39  N         25.9030  -51.8520  -46.5070 N.3    94  ASP94      -0.1239
     40  CA        26.0550  -50.7080  -47.4100 C.3    94  ASP94       0.1674
     41  C         25.0640  -49.5810  -47.1530 C.2    94  ASP94       0.2266
     42  O         25.0320  -48.6070  -47.9090 O.2    94  ASP94      -0.2867
     43  CB        25.9280  -51.1660  -48.8580 C.3    94  ASP94       0.1410
     44  CG        24.5440  -51.7560  -49.1650 C.2    94  ASP94       0.3668
     45  OD1       23.8370  -52.1880  -48.2020 O.co2  94  ASP94      -0.2456
     46  OD2       24.1630  -51.7870  -50.3690 O.co2  94  ASP94      -0.2456
     47  N         17.3790  -42.8580  -46.6340 N.3   157  TYR157     -0.1227
     48  CA        16.2610  -42.6240  -47.5830 C.3   157  TYR157      0.1736
     49  C         16.5760  -43.1210  -48.9720 C.2   157  TYR157      0.2595
     50  O         16.6170  -42.2930  -49.8910 O.2   157  TYR157     -0.2718
     51  CB        15.9180  -41.1570  -47.6410 C.3   157  TYR157      0.0548
     52  CG        14.5050  -40.8120  -48.0230 C.ar  157  TYR157     -0.0200
     53  CD1       13.4840  -40.8150  -47.0850 C.ar  157  TYR157     -0.0009
     54  CD2       14.1940  -40.3990  -49.3110 C.ar  157  TYR157     -0.0009
     55  CE1       12.1870  -40.4360  -47.4280 C.ar  157  TYR157      0.0417
     56  CE2       12.8690  -40.0360  -49.6780 C.ar  157  TYR157      0.0417
     57  CZ        11.8980  -40.0520  -48.7370 C.ar  157  TYR157      0.1957
     58  OH        10.6390  -39.7000  -49.0890 O.3   157  TYR157     -0.2866
     59  N         16.8410  -44.4330  -49.1150 N.am  158  TRP158     -0.1962
     60  CA        16.9120  -45.1290  -50.4350 C.3   158  TRP158      0.1771
     61  C         15.6400  -45.8540  -50.9310 C.2   158  TRP158      0.2619
     62  O         14.7500  -46.2060  -50.1650 O.2   158  TRP158     -0.2715
     63  CB        18.0420  -46.1180  -50.4440 C.3   158  TRP158      0.0590
     64  CG        19.3670  -45.4800  -50.4750 C.ar  158  TRP158      0.0006
     65  CD1       19.6540  -44.1110  -50.4700 C.ar  158  TRP158      0.0946
     66  CD2       20.6350  -46.1530  -50.5160 C.ar  158  TRP158      0.0152
     67  NE1       21.0300  -43.9260  -50.5180 N.ar  158  TRP158     -0.2442
     68  CE2       21.6470  -45.1530  -50.5410 C.ar  158  TRP158      0.0810
     69  CE3       21.0130  -47.4960  -50.5240 C.ar  158  TRP158      0.0012
     70  CZ2       23.0090  -45.4690  -50.5610 C.ar  158  TRP158      0.0191
     71  CZ3       22.3800  -47.8120  -50.5500 C.ar  158  TRP158      0.0001
     72  CH2       23.3590  -46.8020  -50.5810 C.ar  158  TRP158      0.0015
     73  N         15.5550  -46.0780  -52.2390 N.am  159  LYS159     -0.1977
     74  CA        14.4570  -46.8430  -52.8040 C.3   159  LYS159      0.1596
     75  C         14.9970  -48.2310  -52.6080 C.2   159  LYS159      0.2287
     76  O         16.2280  -48.4150  -52.5480 O.2   159  LYS159     -0.2864
     77  CB        14.2910  -46.5880  -54.3340 C.3   159  LYS159      0.0298
     78  CG        12.7940  -46.4100  -54.8340 C.3   159  LYS159      0.0038
     79  CD        12.3110  -47.3730  -55.9840 C.3   159  LYS159      0.0206
     80  CE        10.7400  -47.2580  -56.1550 C.3   159  LYS159      0.1093
     81  NZ        10.1520  -46.4100  -55.0050 N.3   159  LYS159     -0.1314
     82  N         15.1320  -51.9600  -50.4310 N.3   161  TRP161     -0.1227
     83  CA        14.9190  -52.6040  -49.1190 C.3   161  TRP161      0.1737
     84  C         16.1640  -52.4630  -48.2760 C.2   161  TRP161      0.2595
     85  O         16.8610  -53.4490  -47.9680 O.2   161  TRP161     -0.2718
     86  CB        14.3540  -54.0400  -49.2620 C.3   161  TRP161      0.0564
     87  CG        12.9080  -53.8820  -49.7790 C.ar  161  TRP161      0.0003
     88  CD1       11.7990  -53.5730  -49.0180 C.ar  161  TRP161      0.0946
     89  CD2       12.4640  -53.8600  -51.1370 C.ar  161  TRP161      0.0152
     90  NE1       10.6910  -53.4110  -49.8100 N.ar  161  TRP161     -0.2442
     91  CE2       11.0720  -53.5910  -51.1200 C.ar  161  TRP161      0.0810
     92  CE3       13.1090  -54.0240  -52.3750 C.ar  161  TRP161      0.0012
     93  CZ2       10.3040  -53.4890  -52.3090 C.ar  161  TRP161      0.0191
     94  CZ3       12.3540  -53.9590  -53.5450 C.ar  161  TRP161      0.0001
     95  CH2       10.9670  -53.6830  -53.5010 C.ar  161  TRP161      0.0015
     96  N         16.4740  -51.2140  -47.9320 N.am  162  PHE162     -0.1976
     97  CA        17.7280  -50.9610  -47.2300 C.3   162  PHE162      0.1639
     98  C         17.5450  -50.7230  -45.7120 C.2   162  PHE162      0.2290
     99  O         18.4990  -50.4940  -44.9760 O.2   162  PHE162     -0.2864
    100  CB        18.4210  -49.8250  -47.9300 C.3   162  PHE162      0.0560
    101  CG        19.0180  -50.2150  -49.2700 C.ar  162  PHE162     -0.0200
    102  CD1       20.2720  -50.8230  -49.3400 C.ar  162  PHE162     -0.0042
    103  CD2       18.3440  -49.9660  -50.4400 C.ar  162  PHE162     -0.0042
    104  CE1       20.8370  -51.2270  -50.5570 C.ar  162  PHE162     -0.0003
    105  CE2       18.8840  -50.3420  -51.6680 C.ar  162  PHE162     -0.0003
    106  CZ        20.1240  -50.9750  -51.7360 C.ar  162  PHE162     -0.0000
@<TRIPOS>BOND
     1    80    79    1
     2    80    81    1
     3    79    78    1
     4    78    77    1
     5    77    74    1
     6     8     6   ar
     7    94    95   ar
     8    94    92   ar
     9    95    93   ar
    10     7     6   ar
    11     6     5    1
    12    74    75    1
    13    74    73    1
    14    75    76    2
    15    92    89   ar
    16    93    91   ar
    17    73    61   am
    18   106   105   ar
    19   106   104   ar
    20   105   103   ar
    21     5     2    1
    22    16    14   am
    23    89    91   ar
    24    89    87   ar
    25    91    90   ar
    26    26    27   ar
    27    26    24   ar
    28    61    60    1
    29    61    62    2
    30    27    25   ar
    31     2     1    1
    32     2     3    1
    33    72    70   ar
    34    72    71   ar
    35    70    68   ar
    36   104   102   ar
    37    71    69   ar
    38    68    67   ar
    39    68    66   ar
    40    69    66   ar
    41    67    65   ar
    42    66    64   ar
    43    64    65   ar
    44    64    63    1
    45    63    60    1
    46   103   101   ar
    47    60    59    1
    48    82    83    1
    49    38    36    1
    50    46    44   ar
    51    37    36    1
    52    14    15    2
    53    14    13    1
    54    24    22   ar
    55    50    49    2
    56    90    88   ar
    57    87    86    1
    58    87    88   ar
    59    25    23   ar
    60     9     3   am
    61     9    10    1
    62     3     4    2
    63    56    54   ar
    64    56    57   ar
    65    36    35    2
    66   102   101   ar
    67    54    52   ar
    68   101   100    1
    69    86    83    1
    70    44    43    1
    71    44    45   ar
    72    13    10    1
    73    83    84    1
    74    59    49   am
    75    58    57    1
    76    49    48    1
    77    22    23   ar
    78    22    21    1
    79    43    40    1
    80    10    11    1
    81    57    55   ar
    82    35    34    1
    83    84    85    2
    84    84    96   am
    85    52    51    1
    86    52    53   ar
    87    96    97    1
    88   100    97    1
    89    42    41    2
    90    21    18    1
    91    51    48    1
    92    48    47    1
    93    34    33    1
    94    55    53   ar
    95    40    41    1
    96    40    39    1
    97    11    12    2
    98    97    98    1
    99    17    18    1
   100    18    19    1
   101    33    32    1
   102    32    29    1
   103    19    20    2
   104    98    99    2
   105    29    30    1
   106    29    28    1
   107    30    31    2
