@<TRIPOS>MOLECULE
tmp/2e37C00.pdb
 198 186 0 0 0
SMALL
GASTEIGER

@<TRIPOS>ATOM
      1  N         99.8770   64.1200   92.8910 N.3     5  VAL5       -0.1231
      2  CA        98.9510   64.4790   91.8280 C.3     5  VAL5        0.1692
      3  C         97.5310   64.0530   92.2180 C.2     5  VAL5        0.2592
      4  O         97.2350   62.8690   92.4140 O.2     5  VAL5       -0.2718
      5  CB        99.3800   63.8680   90.4600 C.3     5  VAL5        0.0266
      6  CG1       99.9030   62.4670   90.6490 C.3     5  VAL5        0.0020
      7  CG2       98.2020   63.8700   89.5000 C.3     5  VAL5        0.0020
      8  N         96.6670   65.0570   92.3540 N.am    6  GLY6       -0.1957
      9  CA        95.2940   64.8380   92.7510 C.3     6  GLY6        0.1869
     10  C         95.1170   65.4970   94.1030 C.2     6  GLY6        0.2309
     11  O         95.3740   64.8770   95.1260 O.2     6  GLY6       -0.2863
     12  N         92.5960   66.1260   95.9540 N.3     8  GLY8       -0.1225
     13  CA        91.3050   65.9150   96.5770 C.3     8  GLY8        0.1811
     14  C         91.5160   65.7830   98.0720 C.2     8  GLY8        0.2280
     15  O         92.5470   66.2110   98.5920 O.2     8  GLY8       -0.2866
     16  N         92.0940   63.0470   99.8750 N.3     9  VAL9       -0.1231
     17  CA        93.2310   62.1720  100.1240 C.3     9  VAL9        0.1692
     18  C         94.5400   62.8590   99.7830 C.2     9  VAL9        0.2592
     19  O         95.4760   62.8590  100.5900 O.2     9  VAL9       -0.2718
     20  CB        93.1330   60.8660   99.3130 C.3     9  VAL9        0.0266
     21  CG1       94.4140   60.0800   99.4540 C.3     9  VAL9        0.0020
     22  CG2       91.9730   60.0300   99.8130 C.3     9  VAL9        0.0020
     23  N         94.6090   63.4340   98.5840 N.am   10  GLY10      -0.1957
     24  CA        95.8110   64.1280   98.1690 C.3    10  GLY10       0.1869
     25  C         96.2070   65.2470   99.1230 C.2    10  GLY10       0.2309
     26  O         97.3690   65.3470   99.5180 O.2    10  GLY10      -0.2863
     27  N         99.6830   68.5800   92.4090 N.3    29  VAL29      -0.1231
     28  CA        99.2760   68.7460   91.0170 C.3    29  VAL29       0.1692
     29  C         97.8290   68.3100   90.8270 C.2    29  VAL29       0.2592
     30  O         97.4470   67.2160   91.2410 O.2    29  VAL29      -0.2718
     31  CB       100.1570   67.9050   90.0610 C.3    29  VAL29       0.0266
     32  CG1       99.6640   68.0610   88.6260 C.3    29  VAL29       0.0020
     33  CG2      101.5990   68.3410   90.1580 C.3    29  VAL29       0.0020
     34  N         97.0260   69.1610   90.1970 N.am   30  ASP30      -0.1960
     35  CA        95.6270   68.8230   89.9610 C.3    30  ASP30       0.1840
     36  C         95.0730   69.5160   88.7080 C.2    30  ASP30       0.2622
     37  O         95.5120   70.6090   88.3520 O.2    30  ASP30      -0.2715
     38  CB        94.7970   69.2000   91.1930 C.3    30  ASP30       0.1450
     39  CG        93.5160   68.3950   91.3050 C.2    30  ASP30       0.3671
     40  OD1       92.4980   68.7780   90.6970 O.co2  30  ASP30      -0.2456
     41  OD2       93.5310   67.3610   92.0010 O.co2  30  ASP30      -0.2456
     42  N         94.1270   68.8730   88.0300 N.am   31  LEU31      -0.1963
     43  CA        93.5150   69.4720   86.8420 C.3    31  LEU31       0.1728
     44  C         92.9150   70.8150   87.2350 C.2    31  LEU31       0.2616
     45  O         92.9730   71.7870   86.4790 O.2    31  LEU31      -0.2715
     46  CB        92.4070   68.5800   86.2880 C.3    31  LEU31       0.0311
     47  CG        92.7720   67.5890   85.1860 C.3    31  LEU31       0.0022
     48  CD1       91.4960   66.9180   84.6970 C.3    31  LEU31       0.0001
     49  CD2       93.4670   68.3140   84.0390 C.3    31  LEU31       0.0001
     50  N         92.3300   70.8490   88.4260 N.am   32  ASP32      -0.1971
     51  CA        91.7300   72.0590   88.9580 C.3    32  ASP32       0.1709
     52  C         92.8480   72.8520   89.6140 C.2    32  ASP32       0.2293
     53  O         93.0240   72.7910   90.8270 O.2    32  ASP32      -0.2864
     54  CB        90.6760   71.7090   90.0040 C.3    32  ASP32       0.1436
     55  CG        89.8720   72.9080   90.4390 C.2    32  ASP32       0.3671
     56  OD1       90.3960   74.0400   90.3650 O.co2  32  ASP32      -0.2456
     57  OD2       88.7150   72.7160   90.8670 O.co2  32  ASP32      -0.2456
     58  N         92.2740   74.5610   92.8110 N.3    35  LEU35      -0.1245
     59  CA        92.0380   73.6700   93.9370 C.3    35  LEU35       0.1561
     60  C         93.3800   73.3440   94.6140 C.2    35  LEU35       0.2260
     61  O         93.5020   73.4100   95.8320 O.2    35  LEU35      -0.2867
     62  CB        91.3490   72.3840   93.4660 C.3    35  LEU35       0.0270
     63  CG        91.0610   71.3350   94.5500 C.3    35  LEU35       0.0019
     64  CD1       90.1050   71.8890   95.5930 C.3    35  LEU35       0.0001
     65  CD2       90.4700   70.0990   93.9120 C.3    35  LEU35       0.0001
     66  N        103.1830   69.1770   86.2650 N.3    60  TYR60      -0.1241
     67  CA       103.9940   67.9760   86.1480 C.3    60  TYR60       0.1605
     68  C        105.4640   68.3620   86.0420 C.2    60  TYR60       0.2264
     69  O        106.3400   67.6780   86.5800 O.2    60  TYR60      -0.2867
     70  CB       103.5620   67.1660   84.9210 C.3    60  TYR60       0.0534
     71  CG       102.2090   66.5030   85.0900 C.ar   60  TYR60      -0.0201
     72  CD1      102.0110   65.5290   86.0690 C.ar   60  TYR60      -0.0009
     73  CD2      101.1190   66.8680   84.2930 C.ar   60  TYR60      -0.0009
     74  CE1      100.7660   64.9370   86.2550 C.ar   60  TYR60       0.0417
     75  CE2       99.8640   66.2800   84.4710 C.ar   60  TYR60       0.0417
     76  CZ        99.6970   65.3130   85.4540 C.ar   60  TYR60       0.1957
     77  OH        98.4720   64.7060   85.6340 O.3    60  TYR60      -0.2866
     78  N         96.8630   60.2180   93.6800 N.3    72  ALA72      -0.1231
     79  CA        95.5850   60.2630   94.3770 C.3    72  ALA72       0.1694
     80  C         94.5530   60.9530   93.4960 C.2    72  ALA72       0.2592
     81  O         93.6450   61.6260   93.9850 O.2    72  ALA72      -0.2718
     82  CB        95.7330   61.0120   95.7050 C.3    72  ALA72       0.0304
     83  N         94.7070   60.7870   92.1870 N.am   73  ALA73      -0.1966
     84  CA        93.7830   61.3780   91.2260 C.3    73  ALA73       0.1728
     85  C         92.7100   60.3590   90.8940 C.2    73  ALA73       0.2617
     86  O         92.9910   59.1650   90.7810 O.2    73  ALA73      -0.2715
     87  CB        94.5220   61.7880   89.9630 C.3    73  ALA73       0.0334
     88  N         91.4810   60.8370   90.7430 N.am   74  GLY74      -0.1940
     89  CA        90.3780   59.9560   90.4240 C.3    74  GLY74       0.2014
     90  C         89.0840   60.7150   90.2260 C.2    74  GLY74       0.2639
     91  O         89.0220   61.9280   90.4200 O.2    74  GLY74      -0.2714
     92  N         88.0400   60.0000   89.8340 N.am   75  VAL75      -0.1963
     93  CA        86.7480   60.6260   89.6130 C.3    75  VAL75       0.1727
     94  C         85.7040   60.0450   90.5580 C.2    75  VAL75       0.2616
     95  O         85.8930   58.9610   91.1150 O.2    75  VAL75      -0.2715
     96  CB        86.2720   60.4260   88.1480 C.3    75  VAL75       0.0290
     97  CG1       87.2590   61.0690   87.1900 C.3    75  VAL75       0.0023
     98  CG2       86.1170   58.9400   87.8380 C.3    75  VAL75       0.0023
     99  N         84.6150   60.7830   90.7520 N.am   76  ALA76      -0.1977
    100  CA        83.5310   60.3250   91.6080 C.3    76  ALA76       0.1597
    101  C         82.5460   59.5900   90.7040 C.2    76  ALA76       0.2287
    102  O         82.2560   60.0430   89.5910 O.2    76  ALA76      -0.2864
    103  CB        82.8480   61.5100   92.2800 C.3    76  ALA76       0.0319
    104  N         82.9670   52.8250   86.3060 N.3    86  LEU86      -0.1245
    105  CA        83.7120   53.7820   87.0940 C.3    86  LEU86       0.1561
    106  C         85.1760   53.3830   87.1370 C.2    86  LEU86       0.2260
    107  O         86.0730   54.1910   86.9350 O.2    86  LEU86      -0.2867
    108  CB        83.1320   53.7910   88.5090 C.3    86  LEU86       0.0270
    109  CG        84.0890   54.4080   89.5310 C.3    86  LEU86       0.0019
    110  CD1       84.0400   55.9380   89.5260 C.3    86  LEU86       0.0001
    111  CD2       83.7850   53.9750   90.9660 C.3    86  LEU86       0.0001
    112  N         88.5380   55.6490   85.9490 N.3    90  ASN90      -0.1240
    113  CA        89.7220   55.9010   86.7560 C.3    90  ASN90       0.1653
    114  C         90.9690   55.4310   86.0300 C.2    90  ASN90       0.2266
    115  O         92.0120   56.0820   86.0960 O.2    90  ASN90      -0.2867
    116  CB        89.6160   55.2290   88.1330 C.3    90  ASN90       0.1155
    117  CG        88.8400   56.0780   89.1400 C.2    90  ASN90       0.2627
    118  OD1       88.9050   57.3170   89.1170 O.2    90  ASN90      -0.2716
    119  ND2       88.1170   55.4150   90.0390 N.am   90  ASN90      -0.0877
    120  N         92.0410   58.1110   83.7210 N.3    93  VAL93      -0.1245
    121  CA        92.7370   59.1780   84.4390 C.3    93  VAL93       0.1561
    122  C         94.2180   58.8190   84.5990 C.2    93  VAL93       0.2260
    123  O         95.1080   59.6460   84.3610 O.2    93  VAL93      -0.2867
    124  CB        92.1280   59.3840   85.8440 C.3    93  VAL93       0.0252
    125  CG1       92.9610   60.3850   86.6390 C.3    93  VAL93       0.0019
    126  CG2       90.6860   59.8520   85.7130 C.3    93  VAL93       0.0019
    127  N         96.4660   59.1500   81.6080 N.3    96  GLN96      -0.1231
    128  CA        96.9760   60.4910   81.3670 C.3    96  GLN96       0.1698
    129  C         98.0430   60.8330   82.4030 C.2    96  GLN96       0.2592
    130  O         99.1160   61.3220   82.0620 O.2    96  GLN96      -0.2718
    131  CB        95.8460   61.5320   81.4590 C.3    96  GLN96       0.0381
    132  CG        94.6680   61.3280   80.4920 C.3    96  GLN96       0.0905
    133  CD        95.1010   61.2170   79.0310 C.2    96  GLN96       0.2608
    134  OE1       95.7790   62.1060   78.4940 O.2    96  GLN96      -0.2717
    135  NE2       94.7090   60.1190   78.3810 N.am   96  GLN96      -0.0878
    136  N         97.7500   60.5630   83.6720 N.am   97  VAL97      -0.1980
    137  CA        98.6800   60.8860   84.7470 C.3    97  VAL97       0.1595
    138  C        100.0340   60.1640   84.7420 C.2    97  VAL97       0.2287
    139  O        101.0830   60.8120   84.7190 O.2    97  VAL97      -0.2864
    140  CB        97.9970   60.6910   86.1340 C.3    97  VAL97       0.0276
    141  CG1       99.0310   60.7500   87.2490 C.3    97  VAL97       0.0022
    142  CG2       96.9570   61.7770   86.3490 C.3    97  VAL97       0.0022
    143  N         97.2360   55.6170   95.7290 N.3   113  ALA113     -0.1231
    144  CA        96.3560   55.7180   96.8870 C.3   113  ALA113      0.1694
    145  C         94.8780   55.7080   96.4850 C.2   113  ALA113      0.2593
    146  O         93.9770   55.6820   97.3150 O.2   113  ALA113     -0.2718
    147  CB        96.7190   57.0060   97.6290 C.3   113  ALA113      0.0304
    148  N         94.6500   55.7670   95.1600 N.am  114  THR114     -0.1939
    149  CA        93.2830   55.8170   94.6480 C.3   114  THR114      0.2028
    150  C         92.5590   54.4660   94.7360 C.2   114  THR114      0.2642
    151  O         93.0940   53.4130   94.4080 O.2   114  THR114     -0.2714
    152  CB        93.3600   56.2850   93.1920 C.3   114  THR114      0.1808
    153  OG1       93.6900   57.6750   93.1640 O.3   114  THR114     -0.2208
    154  CG2       92.0070   56.0890   92.5050 C.3   114  THR114      0.0379
    155  N         91.3050   54.5160   95.2340 N.am  115  ASN115     -0.1971
    156  CA        90.5440   53.2800   95.4210 C.3   115  ASN115      0.1688
    157  C         89.7580   52.8860   94.1650 C.2   115  ASN115      0.2292
    158  O         89.2060   53.7220   93.4620 O.2   115  ASN115     -0.2864
    159  CB        89.5770   53.4820   96.5900 C.3   115  ASN115      0.1181
    160  CG        90.3550   53.7560   97.8520 C.2   115  ASN115      0.2629
    161  OD1       90.2690   54.8260   98.4470 O.2   115  ASN115     -0.2716
    162  ND2       91.1090   52.7320   98.2850 N.am  115  ASN115     -0.0877
    163  N         83.0870   55.9750  106.0610 N.3   218  ILE218     -0.1245
    164  CA        82.3590   56.4080  104.8610 C.3   218  ILE218      0.1561
    165  C         80.9140   56.7130  105.2350 C.2   218  ILE218      0.2260
    166  O         80.3540   57.7150  104.8090 O.2   218  ILE218     -0.2867
    167  CB        82.2890   55.2990  103.7780 C.3   218  ILE218      0.0252
    168  CG1       83.6840   54.8670  103.3370 C.3   218  ILE218      0.0019
    169  CG2       81.4690   55.7900  102.5980 C.3   218  ILE218      0.0019
    170  CD1       84.4500   55.9090  102.6270 C.3   218  ILE218      0.0001
    171  N         81.2440   60.2180  104.7100 N.3   222  GLY222     -0.1210
    172  CA        81.2740   60.1460  103.2610 C.3   222  GLY222      0.1956
    173  C         82.5580   59.6920  102.6080 C.2   222  GLY222      0.2612
    174  O         82.5510   59.2520  101.4660 O.2   222  GLY222     -0.2717
    175  N         83.6740   59.8030  103.3140 N.am  223  ALA223     -0.1965
    176  CA        84.9430   59.3700  102.7460 C.3   223  ALA223      0.1728
    177  C         86.0150   59.2470  103.8310 C.2   223  ALA223      0.2617
    178  O         85.8200   59.7040  104.9530 O.2   223  ALA223     -0.2715
    179  CB        85.3830   60.3580  101.6590 C.3   223  ALA223      0.0334
    180  N         87.1290   58.5980  103.5030 N.am  224  THR224     -0.1937
    181  CA        88.2320   58.4590  104.4430 C.3   224  THR224      0.2028
    182  C         89.4030   59.1960  103.8230 C.2   224  THR224      0.2642
    183  O         89.5650   59.1850  102.6130 O.2   224  THR224     -0.2714
    184  CB        88.6610   56.9750  104.6700 C.3   224  THR224      0.1808
    185  OG1       89.2180   56.4350  103.4640 O.3   224  THR224     -0.2208
    186  CG2       87.4800   56.1280  105.0950 C.3   224  THR224      0.0379
    187  N         90.2050   59.8550  104.6480 N.am  225  TYR225     -0.1973
    188  CA        91.3700   60.5660  104.1500 C.3   225  TYR225      0.1639
    189  C         92.4340   60.8150  105.2230 C.2   225  TYR225      0.2290
    190  O         93.6260   60.6960  104.9530 O.2   225  TYR225     -0.2864
    191  CB        90.9590   61.8930  103.4830 C.3   225  TYR225      0.0560
    192  CG        89.8760   62.6770  104.1930 C.ar  225  TYR225     -0.0198
    193  CD1       88.5280   62.4450  103.9220 C.ar  225  TYR225     -0.0009
    194  CD2       90.2000   63.6740  105.1090 C.ar  225  TYR225     -0.0009
    195  CE1       87.5300   63.1900  104.5400 C.ar  225  TYR225      0.0417
    196  CE2       89.2110   64.4270  105.7410 C.ar  225  TYR225      0.0417
    197  CZ        87.8820   64.1820  105.4530 C.ar  225  TYR225      0.1957
    198  OH        86.9080   64.9160  106.0910 O.3   225  TYR225     -0.2866
@<TRIPOS>BOND
     1   135   133   am
     2   134   133    2
     3   133   132    1
     4   132   131    1
     5   128   131    1
     6   128   127    1
     7   128   129    1
     8   130   129    2
     9   129   136   am
    10   136   137    1
    11   120   121    1
    12    49    47    1
    13    73    75   ar
    14    73    71   ar
    15   123   122    2
    16   121   122    1
    17   121   124    1
    18    75    76   ar
    19    48    47    1
    20   139   138    2
    21   138   137    1
    22   137   140    1
    23    70    71    1
    24    70    67    1
    25    71    72   ar
    26    47    46    1
    27    76    77    1
    28    76    74   ar
    29   126   124    1
    30   124   125    1
    31   112   113    1
    32   114   115    2
    33   114   113    1
    34    68    67    1
    35    68    69    2
    36    72    74   ar
    37   140   142    1
    38   140   141    1
    39    67    66    1
    40    46    43    1
    41   104   105    1
    42    45    44    2
    43   113   116    1
    44    43    44    1
    45    43    42    1
    46   107   106    2
    47   105   106    1
    48   105   108    1
    49    97    96    1
    50    44    50   am
    51    98    96    1
    52    42    36   am
    53   116   117    1
    54    96    93    1
    55    37    36    2
    56    50    51    1
    57   108   109    1
    58    32    31    1
    59    36    35    1
    60    51    52    1
    61    51    54    1
    62   118   117    2
    63   117   119   am
    64     7     5    1
    65   110   109    1
    66   109   111    1
    67   102   101    2
    68    93    92    1
    69    93    94    1
    70    52    53    2
    71    92    90   am
    72    35    34    1
    73    35    38    1
    74    87    84    1
    75    54    55    1
    76    31    33    1
    77    31    28    1
    78    34    29   am
    79    90    91    2
    80    90    89    1
    81    56    55   ar
    82    89    88    1
    83    55    57   ar
    84     5     6    1
    85     5     2    1
    86    94    99   am
    87    94    95    2
    88    40    39   ar
    89   101   100    1
    90    88    85   am
    91    99   100    1
    92    86    85    2
    93    29    28    1
    94    29    30    2
    95    85    84    1
    96    28    27    1
    97    38    39    1
    98    84    83    1
    99    39    41   ar
   100   100   103    1
   101     2     3    1
   102     2     1    1
   103    83    80   am
   104     3     8   am
   105     3     4    2
   106     8     9    1
   107   154   152    1
   108     9    10    1
   109    58    59    1
   110   153   152    1
   111   152   149    1
   112   158   157    2
   113    62    59    1
   114    62    63    1
   115    80    81    2
   116    80    79    1
   117    78    79    1
   118    65    63    1
   119    59    60    1
   120    10    11    2
   121   157   156    1
   122    79    82    1
   123   151   150    2
   124    63    64    1
   125    60    61    2
   126   149   150    1
   127   149   148    1
   128   150   155   am
   129   148   145   am
   130   155   156    1
   131   156   159    1
   132   143   144    1
   133    12    13    1
   134   145   144    1
   135   145   146    2
   136    13    14    1
   137   159   160    1
   138   144   147    1
   139   160   162   am
   140   160   161    2
   141    14    15    2
   142    24    23    1
   143    24    25    1
   144    23    18   am
   145    25    26    2
   146    20    21    1
   147    20    22    1
   148    20    17    1
   149    18    17    1
   150    18    19    2
   151    16    17    1
   152   174   173    2
   153   179   176    1
   154   169   167    1
   155   173   172    1
   156   173   175   am
   157   183   182    2
   158   170   168    1
   159   176   175    1
   160   176   177    1
   161   172   171    1
   162   168   167    1
   163   185   184    1
   164   191   188    1
   165   191   192    1
   166   180   177   am
   167   180   181    1
   168   167   164    1
   169   182   181    1
   170   182   187   am
   171   177   178    2
   172   193   192   ar
   173   193   195   ar
   174   188   187    1
   175   188   189    1
   176   192   194   ar
   177   181   184    1
   178   195   197   ar
   179   184   186    1
   180   166   165    2
   181   164   165    1
   182   164   163    1
   183   190   189    2
   184   194   196   ar
   185   197   196   ar
   186   197   198    1
