@<TRIPOS>MOLECULE
tmp/2e3kC00.pdb
 155 154 0 0 0
SMALL
GASTEIGER

@<TRIPOS>ATOM
      1  N         -2.7730    2.4410   38.5590 N.3    24  PRO24      -0.2102
      2  CA        -3.6160    1.2250   38.3980 C.3    24  PRO24       0.1504
      3  C         -2.8350    0.0310   37.7740 C.2    24  PRO24       0.2575
      4  O         -3.2210   -1.1290   37.8960 O.2    24  PRO24      -0.2718
      5  CB        -4.7790    1.7040   37.5010 C.3    24  PRO24       0.0282
      6  CG        -4.7630    3.1750   37.5950 C.3    24  PRO24       0.0208
      7  CD        -3.2670    3.5380   37.6970 C.3    24  PRO24       0.0893
      8  N         -1.7110    0.3400   37.1520 N.am   25  PHE25      -0.1977
      9  CA        -0.9320   -0.6460   36.4270 C.3    25  PHE25       0.1639
     10  C          0.3800   -1.0560   37.1150 C.2    25  PHE25       0.2290
     11  O          1.1000   -1.8300   36.5780 O.2    25  PHE25      -0.2864
     12  CB        -0.6730   -0.1470   34.9990 C.3    25  PHE25       0.0560
     13  CG        -1.8920    0.4170   34.3500 C.ar   25  PHE25      -0.0200
     14  CD1       -2.1230    1.8290   34.3290 C.ar   25  PHE25      -0.0042
     15  CD2       -2.8490   -0.4140   33.8540 C.ar   25  PHE25      -0.0042
     16  CE1       -3.2350    2.3720   33.7760 C.ar   25  PHE25      -0.0003
     17  CE2       -4.0360    0.1380   33.2340 C.ar   25  PHE25      -0.0003
     18  CZ        -4.2080    1.5170   33.1900 C.ar   25  PHE25      -0.0000
     19  N         -3.6790   -6.5380   38.7690 N.3    29  VAL29      -0.1245
     20  CA        -5.0440   -6.2950   39.1570 C.3    29  VAL29       0.1561
     21  C         -5.4960   -7.2450   40.2960 C.2    29  VAL29       0.2260
     22  O         -5.5200   -8.4860   40.1930 O.2    29  VAL29      -0.2867
     23  CB        -6.0370   -6.3640   37.9580 C.3    29  VAL29       0.0252
     24  CG1       -7.4680   -6.1460   38.4560 C.3    29  VAL29       0.0019
     25  CG2       -5.7130   -5.3000   36.8700 C.3    29  VAL29       0.0019
     26  N        -10.6330   -5.8260   45.2400 N.3    34  LEU34      -0.1231
     27  CA       -11.5680   -4.8430   44.6500 C.3    34  LEU34       0.1693
     28  C        -12.9720   -5.3790   44.3390 C.2    34  LEU34       0.2593
     29  O        -13.8390   -4.6610   43.8440 O.2    34  LEU34      -0.2718
     30  CB       -10.9600   -4.2070   43.4030 C.3    34  LEU34       0.0284
     31  CG        -9.6850   -3.3730   43.5850 C.3    34  LEU34       0.0019
     32  CD1       -9.0060   -3.0640   42.1700 C.3    34  LEU34       0.0001
     33  CD2      -10.0020   -2.0660   44.3380 C.3    34  LEU34       0.0001
     34  N        -13.1630   -6.6790   44.5500 N.am   35  GLY35      -0.1942
     35  CA       -14.4500   -7.3420   44.3080 C.3    35  GLY35       0.2014
     36  C        -14.8680   -7.5380   42.8740 C.2    35  GLY35       0.2639
     37  O        -16.0420   -7.3850   42.5320 O.2    35  GLY35      -0.2714
     38  N        -13.8910   -7.8450   42.0230 N.am   36  LEU36      -0.1963
     39  CA       -14.1560   -7.9440   40.5930 C.3    36  LEU36       0.1728
     40  C        -14.4610   -9.3710   40.3770 C.2    36  LEU36       0.2616
     41  O        -13.5680  -10.1260   40.0060 O.2    36  LEU36      -0.2715
     42  CB       -12.9550   -7.5690   39.7310 C.3    36  LEU36       0.0311
     43  CG       -12.2720   -6.2450   39.8510 C.3    36  LEU36       0.0022
     44  CD1      -11.2120   -6.2020   38.8060 C.3    36  LEU36       0.0001
     45  CD2      -13.2900   -5.1200   39.6720 C.3    36  LEU36       0.0001
     46  N        -15.7190   -9.7420   40.6420 N.am   37  HIS37      -0.1959
     47  CA       -16.1380  -11.1390   40.6600 C.3    37  HIS37       0.1787
     48  C        -15.9590  -11.8300   39.3190 C.2    37  HIS37       0.2620
     49  O        -15.8130  -13.0670   39.2510 O.2    37  HIS37      -0.2715
     50  CB       -17.5870  -11.3030   41.0940 C.3    37  HIS37       0.0785
     51  CG       -17.9030  -12.6940   41.5690 C.ar   37  HIS37       0.0821
     52  ND1      -17.1150  -13.3670   42.4790 N.ar   37  HIS37      -0.2267
     53  CD2      -18.8920  -13.5500   41.2250 C.ar   37  HIS37       0.1154
     54  CE1      -17.6160  -14.5750   42.6840 C.ar   37  HIS37       0.1986
     55  NE2      -18.7010  -14.7050   41.9430 N.ar   37  HIS37      -0.2212
     56  N        -15.9700  -11.0150   38.2790 N.am   38  ASP38      -0.1957
     57  CA       -15.9650  -11.4970   36.9150 C.3    38  ASP38       0.1840
     58  C        -14.6330  -11.3320   36.1910 C.2    38  ASP38       0.2622
     59  O        -14.5610  -11.6720   35.0310 O.2    38  ASP38      -0.2715
     60  CB       -17.0450  -10.7400   36.1200 C.3    38  ASP38       0.1450
     61  CG       -16.8770   -9.1660   36.1730 C.2    38  ASP38       0.3671
     62  OD1      -16.4600   -8.5630   37.1960 O.co2  38  ASP38      -0.2456
     63  OD2      -17.2340   -8.4420   35.2030 O.co2  38  ASP38      -0.2456
     64  N        -13.5970  -10.8250   36.8660 N.am   39  TYR39      -0.1974
     65  CA       -12.3980  -10.3730   36.1550 C.3    39  TYR39       0.1639
     66  C        -11.5680  -11.4260   35.4280 C.2    39  TYR39       0.2290
     67  O        -11.0980  -11.1930   34.3050 O.2    39  TYR39      -0.2864
     68  CB       -11.4460   -9.6600   37.0880 C.3    39  TYR39       0.0560
     69  CG       -10.2780   -9.0160   36.3700 C.ar   39  TYR39      -0.0198
     70  CD1      -10.4570   -7.8290   35.6420 C.ar   39  TYR39      -0.0009
     71  CD2       -8.9920   -9.5410   36.4600 C.ar   39  TYR39      -0.0009
     72  CE1       -9.4280   -7.2260   35.0030 C.ar   39  TYR39       0.0417
     73  CE2       -7.9460   -8.9030   35.8130 C.ar   39  TYR39       0.0417
     74  CZ        -8.1850   -7.7510   35.0750 C.ar   39  TYR39       0.1957
     75  OH        -7.2050   -7.1000   34.4300 O.3    39  TYR39      -0.2866
     76  N         -7.3380   -3.5740   30.2240 N.3    78  CYS78      -0.1235
     77  CA        -8.1620   -2.5610   30.9290 C.3    78  CYS78       0.1677
     78  C         -9.2940   -2.1870   30.0510 C.2    78  CYS78       0.2270
     79  O        -10.3560   -1.9970   30.5450 O.2    78  CYS78      -0.2867
     80  CB        -7.4540   -1.2530   31.4030 C.3    78  CYS78       0.0956
     81  SG        -5.7140   -1.5190   31.2080 S.3    78  CYS78      -0.0801
     82  N        -12.0630   -4.9340   29.9510 N.3    81  TYR81      -0.1227
     83  CA       -12.7630   -5.1910   31.2190 C.3    81  TYR81       0.1736
     84  C        -13.6390   -3.9970   31.6660 C.2    81  TYR81       0.2595
     85  O        -14.6560   -4.1960   32.2890 O.2    81  TYR81      -0.2718
     86  CB       -11.7740   -5.6130   32.3350 C.3    81  TYR81       0.0548
     87  CG       -12.5230   -5.7740   33.5780 C.ar   81  TYR81      -0.0200
     88  CD1      -13.3100   -6.9140   33.7780 C.ar   81  TYR81      -0.0009
     89  CD2      -12.5230   -4.7500   34.5490 C.ar   81  TYR81      -0.0009
     90  CE1      -14.0650   -7.0500   34.9240 C.ar   81  TYR81       0.0417
     91  CE2      -13.2900   -4.8670   35.6780 C.ar   81  TYR81       0.0417
     92  CZ       -14.0650   -6.0310   35.8550 C.ar   81  TYR81       0.1957
     93  OH       -14.8470   -6.1680   36.9420 O.3    81  TYR81      -0.2866
     94  N        -13.2670   -2.7810   31.2710 N.am   82  ASN82      -0.1961
     95  CA       -13.8310   -1.5550   31.8610 C.3    82  ASN82       0.1804
     96  C        -14.6630   -0.7460   30.8790 C.2    82  ASN82       0.2463
     97  O        -14.3230   -0.6140   29.7200 O.2    82  ASN82      -0.2730
     98  CB       -12.7260   -0.6920   32.4320 C.3    82  ASN82       0.1195
     99  CG       -11.9060   -1.4040   33.4970 C.2    82  ASN82       0.2630
    100  OD1      -12.3660   -1.6740   34.6130 O.2    82  ASN82      -0.2716
    101  ND2      -10.6690   -1.6570   33.1750 N.am   82  ASN82      -0.0877
    102  N        -15.7900   -0.2310   31.3070 N.am   83  PRO83      -0.2727
    103  CA       -16.6300    0.5530   30.3810 C.3    83  PRO83       0.1402
    104  C        -15.8680    1.8110   29.9260 C.2    83  PRO83       0.2269
    105  O        -14.9560    2.2690   30.6370 O.2    83  PRO83      -0.2865
    106  CB       -17.8910    0.8680   31.2170 C.3    83  PRO83       0.0296
    107  CG       -17.9190   -0.1660   32.2230 C.3    83  PRO83       0.0237
    108  CD       -16.4130   -0.3890   32.6280 C.3    83  PRO83       0.0939
    109  N        -16.3460    4.9720   29.8790 N.3    85  ASP85      -0.1225
    110  CA       -16.4200    6.1760   30.6880 C.3    85  ASP85       0.1805
    111  C        -15.8440    6.0070   32.0960 C.2    85  ASP85       0.2598
    112  O        -16.0630    6.8870   32.9220 O.2    85  ASP85      -0.2718
    113  CB       -17.8920    6.6910   30.7940 C.3    85  ASP85       0.1424
    114  CG       -18.8600    5.6420   31.3720 C.2    85  ASP85       0.3668
    115  OD1      -18.5210    4.4440   31.3970 O.co2  85  ASP85      -0.2456
    116  OD2      -20.0010    5.9090   31.7790 O.co2  85  ASP85      -0.2456
    117  N        -15.1360    4.9030   32.3880 N.am   86  HIS86      -0.1961
    118  CA       -14.4480    4.7980   33.6780 C.3    86  HIS86       0.1787
    119  C        -13.0890    5.5410   33.6880 C.2    86  HIS86       0.2620
    120  O        -12.3880    5.5890   32.6860 O.2    86  HIS86      -0.2715
    121  CB       -14.2270    3.3420   34.1180 C.3    86  HIS86       0.0785
    122  CG       -15.4420    2.6580   34.6710 C.ar   86  HIS86       0.0821
    123  ND1      -15.3830    1.8410   35.7700 N.ar   86  HIS86      -0.2267
    124  CD2      -16.7330    2.6360   34.2630 C.ar   86  HIS86       0.1154
    125  CE1      -16.5720    1.3180   36.0080 C.ar   86  HIS86       0.1986
    126  NE2      -17.4160    1.7940   35.1180 N.ar   86  HIS86      -0.2212
    127  N        -12.7050    6.0450   34.8530 N.am   87  ASP87      -0.1957
    128  CA       -11.4200    6.7020   35.0310 C.3    87  ASP87       0.1840
    129  C        -10.2410    5.8320   34.6130 C.2    87  ASP87       0.2621
    130  O         -9.3960    6.3240   33.9360 O.2    87  ASP87      -0.2715
    131  CB       -11.2310    7.2390   36.4570 C.3    87  ASP87       0.1450
    132  CG       -10.1830    8.3810   36.5460 C.2    87  ASP87       0.3671
    133  OD1      -10.0090    9.2300   35.6040 O.co2  87  ASP87      -0.2456
    134  OD2       -9.4960    8.5300   37.5960 O.co2  87  ASP87      -0.2456
    135  N        -10.2330    4.5490   34.9700 N.am   88  VAL88      -0.1977
    136  CA        -9.1090    3.6560   34.6530 C.3    88  VAL88       0.1596
    137  C         -8.8480    3.5740   33.1330 C.2    88  VAL88       0.2287
    138  O         -7.7080    3.4940   32.6960 O.2    88  VAL88      -0.2864
    139  CB        -9.2810    2.2330   35.2690 C.3    88  VAL88       0.0276
    140  CG1      -10.3800    1.5000   34.6340 C.3    88  VAL88       0.0022
    141  CG2       -8.0170    1.4180   35.1240 C.3    88  VAL88       0.0022
    142  N         -9.3420    6.1460   30.8350 N.3    90  ALA90      -0.1245
    143  CA        -8.5520    7.3520   30.5470 C.3    90  ALA90       0.1562
    144  C         -7.0950    7.2940   31.0510 C.2    90  ALA90       0.2260
    145  O         -6.2320    7.8330   30.4320 O.2    90  ALA90      -0.2867
    146  CB        -9.2560    8.6430   31.0710 C.3    90  ALA90       0.0290
    147  N         -3.5640    7.6500   28.5740 N.3    94  LYS94      -0.1245
    148  CA        -2.4690    8.5550   28.9110 C.3    94  LYS94       0.1561
    149  C         -1.1630    7.7800   29.0150 C.2    94  LYS94       0.2260
    150  O         -0.1700    8.1830   28.4770 O.2    94  LYS94      -0.2867
    151  CB        -2.6990    9.3010   30.2550 C.3    94  LYS94       0.0271
    152  CG        -3.6920   10.4230   30.1210 C.3    94  LYS94       0.0035
    153  CD        -4.0380   11.1110   31.4850 C.3    94  LYS94       0.0206
    154  CE        -5.2930   11.9610   31.3670 C.3    94  LYS94       0.1093
    155  NZ        -4.8730   13.2610   30.7870 N.3    94  LYS94      -0.1314
@<TRIPOS>BOND
     1   150   149    2
     2   147   148    1
     3   148   149    1
     4   148   151    1
     5    97    96    2
     6   109   110    1
     7   104   103    1
     8   104   105    2
     9    82    83    1
    10    78    79    2
    11    78    77    1
    12   152   151    1
    13   152   153    1
    14    76    77    1
    15   103   106    1
    16   103   102    1
    17   145   144    2
    18   143   142    1
    19   143   144    1
    20   143   146    1
    21   110   113    1
    22   110   111    1
    23   155   154    1
    24   113   114    1
    25    96   102   am
    26    96    95    1
    27    77    80    1
    28    81    80    1
    29   106   107    1
    30    83    84    1
    31    83    86    1
    32    94    84   am
    33    94    95    1
    34   102   108    1
    35   154   153    1
    36   114   115   ar
    37   114   116   ar
    38    84    85    2
    39    95    98    1
    40   111   117   am
    41   111   112    2
    42   107   108    1
    43    86    87    1
    44   117   118    1
    45    98    99    1
    46   120   119    2
    47   138   137    2
    48   137   136    1
    49   101    99   am
    50    18    17   ar
    51    18    16   ar
    52    17    15   ar
    53    99   100    2
    54    87    88   ar
    55    87    89   ar
    56   118   119    1
    57   118   121    1
    58   119   127   am
    59    16    14   ar
    60    88    90   ar
    61    15    13   ar
    62   130   129    2
    63   121   122    1
    64   124   122   ar
    65   124   126   ar
    66    67    66    2
    67    14    13   ar
    68    13    12    1
    69    75    74    1
    70    89    91   ar
    71   129   135   am
    72   129   128    1
    73   140   139    1
    74   136   135    1
    75   136   139    1
    76   122   123   ar
    77   127   128    1
    78    90    92   ar
    79    12     9    1
    80    72    74   ar
    81    72    70   ar
    82   128   131    1
    83    59    58    2
    84    74    73   ar
    85   126   125   ar
    86   141   139    1
    87    63    61   ar
    88    66    65    1
    89   133   132   ar
    90    70    69   ar
    91    91    92   ar
    92   123   125   ar
    93    73    71   ar
    94    92    93    1
    95    60    61    1
    96    60    57    1
    97    65    64    1
    98    65    68    1
    99    61    62   ar
   100    58    64   am
   101    58    57    1
   102    69    71   ar
   103    69    68    1
   104     9    10    1
   105     9     8    1
   106   131   132    1
   107   132   134   ar
   108    11    10    2
   109    25    23    1
   110    57    56    1
   111     8     3   am
   112     5     6    1
   113     5     2    1
   114     6     7    1
   115     7     1    1
   116     3     4    2
   117     3     2    1
   118    23    24    1
   119    23    20    1
   120    56    48   am
   121     2     1    1
   122    19    20    1
   123    44    43    1
   124    20    21    1
   125    49    48    2
   126    48    47    1
   127    45    43    1
   128    42    43    1
   129    42    39    1
   130    41    40    2
   131    22    21    2
   132    40    39    1
   133    40    46   am
   134    39    38    1
   135    46    47    1
   136    47    50    1
   137    50    51    1
   138    53    51   ar
   139    53    55   ar
   140    51    52   ar
   141    55    54   ar
   142    38    36   am
   143    32    31    1
   144    52    54   ar
   145    37    36    2
   146    36    35    1
   147    30    31    1
   148    30    27    1
   149    31    33    1
   150    29    28    2
   151    35    34    1
   152    28    34   am
   153    28    27    1
   154    27    26    1
