@<TRIPOS>MOLECULE
tmp/2e3kD00.pdb
 119 117 0 0 0
SMALL
GASTEIGER

@<TRIPOS>ATOM
      1  N        -42.2020   28.0480   32.3830 N.3    25  PRO25      -0.2102
      2  CA       -42.3260   29.3320   33.0920 C.3    25  PRO25       0.1504
      3  C        -41.5350   30.4640   32.4050 C.2    25  PRO25       0.2575
      4  O        -41.7820   31.6450   32.6970 O.2    25  PRO25      -0.2718
      5  CB       -41.8070   29.0470   34.4840 C.3    25  PRO25       0.0282
      6  CG       -41.5310   27.5130   34.5850 C.3    25  PRO25       0.0208
      7  CD       -41.5800   26.9970   33.2260 C.3    25  PRO25       0.0893
      8  N        -40.6570   30.1090   31.4600 N.am   26  PHE26      -0.1977
      9  CA       -39.6960   31.0430   30.8790 C.3    26  PHE26       0.1639
     10  C        -39.9320   31.3810   29.4250 C.2    26  PHE26       0.2290
     11  O        -39.2230   32.2030   28.8690 O.2    26  PHE26      -0.2864
     12  CB       -38.2550   30.5210   31.0770 C.3    26  PHE26       0.0560
     13  CG       -37.9710   30.1520   32.4690 C.ar   26  PHE26      -0.0200
     14  CD1      -38.0490   28.8310   32.8550 C.ar   26  PHE26      -0.0042
     15  CD2      -37.7170   31.1500   33.4490 C.ar   26  PHE26      -0.0042
     16  CE1      -37.8470   28.4590   34.1500 C.ar   26  PHE26      -0.0003
     17  CE2      -37.4950   30.7650   34.7740 C.ar   26  PHE26      -0.0003
     18  CZ       -37.5750   29.4160   35.1130 C.ar   26  PHE26      -0.0000
     19  N        -42.8740   37.1840   32.7320 N.3    30  VAL30      -0.1245
     20  CA       -43.6590   36.9380   33.9070 C.3    30  VAL30       0.1561
     21  C        -44.8300   37.9270   33.8530 C.2    30  VAL30       0.2260
     22  O        -44.6380   39.1330   33.9550 O.2    30  VAL30      -0.2867
     23  CB       -42.8300   37.1140   35.1890 C.3    30  VAL30       0.0252
     24  CG1      -43.7110   37.0590   36.3780 C.3    30  VAL30       0.0019
     25  CG2      -41.6880   35.9940   35.3290 C.3    30  VAL30       0.0019
     26  N        -50.8850   36.2840   37.7330 N.3    35  LEU35      -0.1245
     27  CA       -50.3290   35.4110   38.7640 C.3    35  LEU35       0.1561
     28  C        -50.3520   35.8980   40.1700 C.2    35  LEU35       0.2260
     29  O        -49.9120   35.1770   41.0580 O.2    35  LEU35      -0.2867
     30  CB       -48.9170   34.9650   38.4240 C.3    35  LEU35       0.0270
     31  CG       -48.7600   34.1430   37.1520 C.3    35  LEU35       0.0019
     32  CD1      -47.2790   34.1230   36.7540 C.3    35  LEU35       0.0001
     33  CD2      -49.2290   32.7650   37.4570 C.3    35  LEU35       0.0001
     34  N        -48.4860   38.3010   41.5540 N.3    37  LEU37      -0.1245
     35  CA       -47.1670   38.7380   42.0930 C.3    37  LEU37       0.1561
     36  C        -47.1230   40.2770   42.2710 C.2    37  LEU37       0.2260
     37  O        -46.7520   40.9850   41.3370 O.2    37  LEU37      -0.2867
     38  CB       -46.0300   38.2740   41.1750 C.3    37  LEU37       0.0270
     39  CG       -46.0910   36.8440   40.6010 C.3    37  LEU37       0.0019
     40  CD1      -44.8820   36.5120   39.7780 C.3    37  LEU37       0.0001
     41  CD2      -46.3480   35.7480   41.7020 C.3    37  LEU37       0.0001
     42  N        -43.5040   41.9800   42.1600 N.3    40  TYR40      -0.1241
     43  CA       -42.6070   41.4970   41.1100 C.3    40  TYR40       0.1605
     44  C        -41.7510   42.5520   40.3880 C.2    40  TYR40       0.2264
     45  O        -40.5250   42.5460   40.4610 O.2    40  TYR40      -0.2867
     46  CB       -43.3740   40.6840   40.0560 C.3    40  TYR40       0.0534
     47  CG       -42.3980   39.9870   39.1310 C.ar   40  TYR40      -0.0201
     48  CD1      -41.5920   38.9330   39.6030 C.ar   40  TYR40      -0.0009
     49  CD2      -42.2440   40.4000   37.8030 C.ar   40  TYR40      -0.0009
     50  CE1      -40.6700   38.2980   38.7420 C.ar   40  TYR40       0.0417
     51  CE2      -41.3150   39.8000   36.9540 C.ar   40  TYR40       0.0417
     52  CZ       -40.5640   38.7350   37.4280 C.ar   40  TYR40       0.1957
     53  OH       -39.6750   38.1430   36.6130 O.3    40  TYR40      -0.2866
     54  N        -33.2140   36.6480   38.0000 N.3    78  ASN78      -0.1225
     55  CA       -34.5870   37.0980   38.3780 C.3    78  ASN78       0.1785
     56  C        -35.3560   36.0020   39.1140 C.2    78  ASN78       0.2597
     57  O        -35.8270   36.2410   40.2260 O.2    78  ASN78      -0.2718
     58  CB       -35.3600   37.6540   37.1540 C.3    78  ASN78       0.1169
     59  CG       -34.6230   38.8860   36.5060 C.2    78  ASN78       0.2627
     60  OD1      -33.7690   39.5070   37.1420 O.2    78  ASN78      -0.2716
     61  ND2      -34.9230   39.1730   35.2790 N.am   78  ASN78      -0.0877
     62  N        -35.3650   34.7790   38.5520 N.am   79  CYS79      -0.1970
     63  CA       -36.1230   33.6990   39.1400 C.3    79  CYS79       0.1712
     64  C        -35.6110   33.4070   40.5440 C.2    79  CYS79       0.2296
     65  O        -36.3770   33.4370   41.4590 O.2    79  CYS79      -0.2864
     66  CB       -36.2250   32.4560   38.2170 C.3    79  CYS79       0.0983
     67  SG       -37.2180   31.0800   38.9030 S.3    79  CYS79      -0.0798
     68  N        -36.3940   36.6350   43.0790 N.3    82  TYR82      -0.1227
     69  CA       -37.7760   36.7490   43.4970 C.3    82  TYR82       0.1736
     70  C        -38.3740   35.6450   44.3430 C.2    82  TYR82       0.2595
     71  O        -39.1670   35.9320   45.2580 O.2    82  TYR82      -0.2718
     72  CB       -38.6490   36.9320   42.2840 C.3    82  TYR82       0.0548
     73  CG       -40.0280   37.3080   42.6580 C.ar   82  TYR82      -0.0200
     74  CD1      -40.3050   38.5750   43.1290 C.ar   82  TYR82      -0.0009
     75  CD2      -41.0580   36.4180   42.5360 C.ar   82  TYR82      -0.0009
     76  CE1      -41.5880   38.9500   43.4790 C.ar   82  TYR82       0.0417
     77  CE2      -42.3140   36.7480   42.8970 C.ar   82  TYR82       0.0417
     78  CZ       -42.6050   38.0260   43.3580 C.ar   82  TYR82       0.1957
     79  OH       -43.9070   38.3740   43.7030 O.3    82  TYR82      -0.2866
     80  N        -38.0170   34.4030   44.0200 N.am   83  ASN83      -0.1961
     81  CA       -38.5830   33.2100   44.6580 C.3    83  ASN83       0.1804
     82  C        -37.7450   32.6110   45.7990 C.2    83  ASN83       0.2463
     83  O        -36.4910   32.7160   45.8010 O.2    83  ASN83      -0.2730
     84  CB       -38.8720   32.1660   43.5880 C.3    83  ASN83       0.1195
     85  CG       -39.7450   32.7120   42.4750 C.2    83  ASN83       0.2630
     86  OD1      -40.9250   32.9100   42.6670 O.2    83  ASN83      -0.2716
     87  ND2      -39.1620   32.9810   41.3190 N.am   83  ASN83      -0.0877
     88  N        -38.4190   32.0090   46.7840 N.am   84  PRO84      -0.2727
     89  CA       -37.7520   31.2840   47.8620 C.3    84  PRO84       0.1402
     90  C        -37.0640   30.0110   47.3570 C.2    84  PRO84       0.2269
     91  O        -37.5790   29.3720   46.4310 O.2    84  PRO84      -0.2865
     92  CB       -38.9280   30.8550   48.8130 C.3    84  PRO84       0.0296
     93  CG       -40.0500   31.6470   48.4330 C.3    84  PRO84       0.0237
     94  CD       -39.8830   31.9580   46.9420 C.3    84  PRO84       0.0939
     95  N        -39.0650   26.8680   46.3150 N.3    87  HIS87      -0.1226
     96  CA       -40.1400   26.9060   45.3880 C.3    87  HIS87       0.1752
     97  C        -39.8790   26.0520   44.1330 C.2    87  HIS87       0.2596
     98  O        -38.7450   25.8900   43.7240 O.2    87  HIS87      -0.2718
     99  CB       -40.4380   28.3370   45.0070 C.3    87  HIS87       0.0759
    100  CG       -41.7620   28.5010   44.3720 C.ar   87  HIS87       0.0818
    101  ND1      -42.0240   28.0480   43.0980 N.ar   87  HIS87      -0.2268
    102  CD2      -42.9260   29.0130   44.8420 C.ar   87  HIS87       0.1154
    103  CE1      -43.2950   28.2820   42.7950 C.ar   87  HIS87       0.1986
    104  NE2      -43.8650   28.8710   43.8390 N.ar   87  HIS87      -0.2212
    105  N        -40.9490   25.5080   43.5420 N.am   88  ASP88      -0.1960
    106  CA       -40.8600   24.7390   42.3020 C.3    88  ASP88       0.1840
    107  C        -40.2660   25.4530   41.0700 C.2    88  ASP88       0.2621
    108  O        -39.3640   24.9100   40.4570 O.2    88  ASP88      -0.2715
    109  CB       -42.2290   24.1050   41.9710 C.3    88  ASP88       0.1450
    110  CG       -42.5640   22.8980   42.9090 C.2    88  ASP88       0.3671
    111  OD1      -43.7340   22.4300   43.0120 O.co2  88  ASP88      -0.2456
    112  OD2      -41.6900   22.3450   43.5880 O.co2  88  ASP88      -0.2456
    113  N        -40.7830   26.6380   40.6870 N.am   89  VAL89      -0.1977
    114  CA       -40.1720   27.4620   39.6350 C.3    89  VAL89       0.1596
    115  C        -38.6280   27.5030   39.8080 C.2    89  VAL89       0.2287
    116  O        -37.8930   27.5310   38.8490 O.2    89  VAL89      -0.2864
    117  CB       -40.8310   28.8810   39.5550 C.3    89  VAL89       0.0276
    118  CG1      -40.4510   29.7820   40.7220 C.3    89  VAL89       0.0022
    119  CG2      -40.5520   29.5440   38.2770 C.3    89  VAL89       0.0022
@<TRIPOS>BOND
     1    11    10    2
     2    10     9    1
     3     9    12    1
     4     9     8    1
     5    12    13    1
     6     8     3   am
     7     1     2    1
     8     1     7    1
     9     3     4    2
    10     3     2    1
    11    13    14   ar
    12    13    15   ar
    13    19    20    1
    14    14    16   ar
    15     2     5    1
    16     7     6    1
    17    15    17   ar
    18    21    20    1
    19    21    22    2
    20    20    23    1
    21    16    18   ar
    22     5     6    1
    23    17    18   ar
    24    23    25    1
    25    23    24    1
    26    61    59   am
    27    59    60    2
    28    59    58    1
    29    53    52    1
    30    32    31    1
    31    51    52   ar
    32    51    49   ar
    33    31    33    1
    34    31    30    1
    35    58    55    1
    36    52    50   ar
    37    26    27    1
    38    49    47   ar
    39    54    55    1
    40    66    67    1
    41    66    63    1
    42   119   117    1
    43    55    56    1
    44    30    27    1
    45    62    56   am
    46    62    63    1
    47    50    48   ar
    48    27    28    1
    49   116   115    2
    50    56    57    2
    51    47    48   ar
    52    47    46    1
    53    63    64    1
    54   117   114    1
    55   117   118    1
    56   114   115    1
    57   114   113    1
    58    40    39    1
    59    46    43    1
    60    28    29    2
    61    44    45    2
    62    44    43    1
    63   108   107    2
    64    64    65    2
    65    39    38    1
    66    39    41    1
    67   113   107   am
    68   107   106    1
    69    43    42    1
    70    38    35    1
    71    87    85   am
    72    37    36    2
    73    34    35    1
    74   109   106    1
    75   109   110    1
    76    35    36    1
    77    72    73    1
    78    72    69    1
    79   106   105    1
    80    85    86    2
    81    85    84    1
    82    75    73   ar
    83    75    77   ar
    84    73    74   ar
    85   103   101   ar
    86   103   104   ar
    87    77    78   ar
    88   110   111   ar
    89   110   112   ar
    90    68    69    1
    91   101   100   ar
    92    74    76   ar
    93    78    76   ar
    94    78    79    1
    95    69    70    1
    96   105    97   am
    97    84    81    1
    98    98    97    2
    99   104   102   ar
   100    80    70   am
   101    80    81    1
   102    97    96    1
   103    70    71    2
   104   100   102   ar
   105   100    99    1
   106    81    82    1
   107    99    96    1
   108    96    95    1
   109    82    83    2
   110    82    88   am
   111    91    90    2
   112    88    94    1
   113    88    89    1
   114    94    93    1
   115    90    89    1
   116    89    92    1
   117    93    92    1
