@<TRIPOS>MOLECULE
tmp/2e3vA00.pdb
 79 77 0 0 0
SMALL
GASTEIGER

@<TRIPOS>ATOM
      1  N         28.6480   13.5390   39.6420 N.3    22  PHE22      -0.1227
      2  CA        29.0740   12.5750   38.6600 C.3    22  PHE22       0.1736
      3  C         29.3380   11.2420   39.3320 C.2    22  PHE22       0.2595
      4  O         29.4260   11.1430   40.5660 O.2    22  PHE22      -0.2718
      5  CB        30.3780   13.0690   38.0070 C.3    22  PHE22       0.0547
      6  CG        31.5170   13.2270   38.9890 C.ar   22  PHE22      -0.0202
      7  CD1       32.3710   12.1620   39.2660 C.ar   22  PHE22      -0.0042
      8  CD2       31.7180   14.4340   39.6500 C.ar   22  PHE22      -0.0042
      9  CE1       33.4120   12.3110   40.1900 C.ar   22  PHE22      -0.0003
     10  CE2       32.7550   14.5850   40.5740 C.ar   22  PHE22      -0.0003
     11  CZ        33.6000   13.5240   40.8390 C.ar   22  PHE22      -0.0000
     12  N         29.4520   10.2100   38.5130 N.am   23  ASP23      -0.1960
     13  CA        29.8740    8.9290   39.0140 C.3    23  ASP23       0.1840
     14  C         31.1850    8.6090   38.3330 C.2    23  ASP23       0.2622
     15  O         31.4490    9.0580   37.2150 O.2    23  ASP23      -0.2715
     16  CB        28.8150    7.8360   38.7880 C.3    23  ASP23       0.1450
     17  CG        28.5990    7.4970   37.3230 C.2    23  ASP23       0.3671
     18  OD1       27.6280    8.0140   36.7420 O.co2  23  ASP23      -0.2456
     19  OD2       29.3800    6.7000   36.7580 O.co2  23  ASP23      -0.2456
     20  N         31.9970    7.8250   39.0250 N.am   24  GLU24      -0.1964
     21  CA        33.2890    7.3920   38.5330 C.3    24  GLU24       0.1718
     22  C         33.5480    6.0200   39.1510 C.2    24  GLU24       0.2458
     23  O         33.2650    5.8340   40.3350 O.2    24  GLU24      -0.2730
     24  CB        34.3480    8.4010   38.9810 C.3    24  GLU24       0.0428
     25  CG        35.7840    8.0580   38.6320 C.3    24  GLU24       0.1163
     26  CD        36.0940    8.1720   37.1570 C.2    24  GLU24       0.3649
     27  OE1       35.2570    8.7080   36.4070 O.co2  24  GLU24      -0.2457
     28  OE2       37.1810    7.7180   36.7410 O.co2  24  GLU24      -0.2457
     29  N         34.0750    5.0540   38.3680 N.am   25  PRO25      -0.2716
     30  CA        34.3170    3.7280   38.9530 C.3    25  PRO25       0.1536
     31  C         35.2160    3.7560   40.1910 C.2    25  PRO25       0.2598
     32  O         36.1020    4.6170   40.3080 O.2    25  PRO25      -0.2715
     33  CB        34.9960    2.9670   37.8130 C.3    25  PRO25       0.0310
     34  CG        34.4680    3.6210   36.5850 C.3    25  PRO25       0.0237
     35  CD        34.4540    5.0790   36.9440 C.3    25  PRO25       0.0939
     36  N         34.9590    2.8330   41.1170 N.am   26  GLU26      -0.1964
     37  CA        35.7450    2.7250   42.3470 C.3    26  GLU26       0.1733
     38  C         37.1730    2.3020   42.0110 C.2    26  GLU26       0.2616
     39  O         37.3850    1.4450   41.1460 O.2    26  GLU26      -0.2715
     40  CB        35.1100    1.7320   43.3380 C.3    26  GLU26       0.0429
     41  CG        33.6610    2.0590   43.7690 C.3    26  GLU26       0.1163
     42  CD        33.5100    3.3900   44.5120 C.2    26  GLU26       0.3649
     43  OE1       34.5220    3.9130   45.0310 O.co2  26  GLU26      -0.2457
     44  OE2       32.3730    3.9160   44.5810 O.co2  26  GLU26      -0.2457
     45  N         38.1400    2.9210   42.6870 N.am   27  ALA27      -0.1977
     46  CA        39.5630    2.6410   42.4780 C.3    27  ALA27       0.1597
     47  C         39.8780    1.1670   42.7210 C.2    27  ALA27       0.2287
     48  O         39.3730    0.5620   43.6720 O.2    27  ALA27      -0.2864
     49  CB        40.4200    3.5290   43.3760 C.3    27  ALA27       0.0319
     50  N         42.1280    7.5000   42.2680 N.3    31  ILE31      -0.1245
     51  CA        41.9740    8.7540   41.5350 C.3    31  ILE31       0.1561
     52  C         42.5230    9.8460   42.4440 C.2    31  ILE31       0.2260
     53  O         42.2150    9.8760   43.6340 O.2    31  ILE31      -0.2867
     54  CB        40.5040    9.0070   41.1610 C.3    31  ILE31       0.0252
     55  CG1       40.0460    7.9150   40.1900 C.3    31  ILE31       0.0019
     56  CG2       40.3170   10.4020   40.5550 C.3    31  ILE31       0.0019
     57  CD1       38.6190    8.0050   39.8070 C.3    31  ILE31       0.0001
     58  N         40.2630   15.6530   40.0420 N.3    34  TYR34      -0.1241
     59  CA        39.3350   15.8020   38.9240 C.3    34  TYR34       0.1605
     60  C         39.5720   17.1690   38.3220 C.2    34  TYR34       0.2264
     61  O         39.9520   18.1070   39.0250 O.2    34  TYR34      -0.2867
     62  CB        37.8690   15.7050   39.3630 C.3    34  TYR34       0.0534
     63  CG        37.4890   14.3430   39.8660 C.ar   34  TYR34      -0.0201
     64  CD1       37.1100   13.3370   38.9760 C.ar   34  TYR34      -0.0009
     65  CD2       37.5110   14.0550   41.2240 C.ar   34  TYR34      -0.0009
     66  CE1       36.7660   12.0720   39.4340 C.ar   34  TYR34       0.0417
     67  CE2       37.1720   12.7950   41.6920 C.ar   34  TYR34       0.0417
     68  CZ        36.8010   11.8140   40.7890 C.ar   34  TYR34       0.1957
     69  OH        36.4620   10.5720   41.2390 O.3    34  TYR34      -0.2866
     70  N         34.9630   12.9770   46.5280 N.3    57  SER57      -0.1217
     71  CA        34.4740   11.5970   46.5970 C.3    57  SER57       0.1889
     72  C         33.2790   11.3720   47.5270 C.2    57  SER57       0.2288
     73  O         32.5160   10.4290   47.3210 O.2    57  SER57      -0.2866
     74  CB        35.6100   10.6230   46.9350 C.3    57  SER57       0.2089
     75  OG        35.9800   10.7100   48.3070 O.3    57  SER57      -0.2183
     76  N         30.6410   12.7480   45.1590 N.3    59  GLY59      -0.1225
     77  CA        30.9470   12.6670   43.7330 C.3    59  GLY59       0.1811
     78  C         30.5870   14.0170   43.1490 C.2    59  GLY59       0.2280
     79  O         29.8070   14.1130   42.2040 O.2    59  GLY59      -0.2866
@<TRIPOS>BOND
     1    27    26   ar
     2    34    35    1
     3    34    33    1
     4    28    26   ar
     5    18    17   ar
     6    19    17   ar
     7    35    29    1
     8    26    25    1
     9    15    14    2
    10    17    16    1
    11    33    30    1
    12     5     2    1
    13     5     6    1
    14    60    59    1
    15    60    61    2
    16    14    13    1
    17    14    20   am
    18    29    30    1
    19    29    22   am
    20    12    13    1
    21    12     3   am
    22    21    24    1
    23    21    20    1
    24    21    22    1
    25    25    24    1
    26     2     3    1
    27     2     1    1
    28    16    13    1
    29    59    62    1
    30    59    58    1
    31    30    31    1
    32    64    66   ar
    33    64    63   ar
    34     6     7   ar
    35     6     8   ar
    36    22    23    2
    37     7     9   ar
    38     3     4    2
    39    62    63    1
    40    66    68   ar
    41     8    10   ar
    42    57    55    1
    43    63    65   ar
    44    55    54    1
    45     9    11   ar
    46    31    32    2
    47    31    36   am
    48    56    54    1
    49    10    11   ar
    50    68    69    1
    51    68    67   ar
    52    36    37    1
    53    39    38    2
    54    54    51    1
    55    65    67   ar
    56    51    50    1
    57    51    52    1
    58    38    37    1
    59    38    45   am
    60    79    78    2
    61    37    40    1
    62    52    53    2
    63    46    45    1
    64    46    47    1
    65    46    49    1
    66    47    48    2
    67    78    77    1
    68    40    41    1
    69    77    76    1
    70    41    42    1
    71    42    44   ar
    72    42    43   ar
    73    70    71    1
    74    71    74    1
    75    71    72    1
    76    74    75    1
    77    73    72    2
