@<TRIPOS>MOLECULE
tmp/2e3vC00.pdb
 84 81 0 0 0
SMALL
GASTEIGER

@<TRIPOS>ATOM
      1  N         17.9020  -22.7990   41.0420 N.3    22  PHE22      -0.1227
      2  CA        17.9380  -23.5220   42.2860 C.3    22  PHE22       0.1736
      3  C         16.5350  -23.9060   42.7080 C.2    22  PHE22       0.2595
      4  O         15.5490  -23.3960   42.1680 O.2    22  PHE22      -0.2718
      5  CB        18.5690  -22.6110   43.3640 C.3    22  PHE22       0.0547
      6  CG        17.7750  -21.3560   43.6400 C.ar   22  PHE22      -0.0202
      7  CD1       16.7680  -21.3550   44.6050 C.ar   22  PHE22      -0.0042
      8  CD2       18.0320  -20.1780   42.9410 C.ar   22  PHE22      -0.0042
      9  CE1       16.0210  -20.2100   44.8460 C.ar   22  PHE22      -0.0003
     10  CE2       17.2920  -19.0210   43.1800 C.ar   22  PHE22      -0.0003
     11  CZ        16.2850  -19.0360   44.1390 C.ar   22  PHE22      -0.0000
     12  N         16.4500  -24.8060   43.6830 N.am   23  ASP23      -0.1960
     13  CA        15.1810  -25.0860   44.3170 C.3    23  ASP23       0.1840
     14  C         15.3020  -24.7180   45.7900 C.2    23  ASP23       0.2622
     15  O         16.3920  -24.7790   46.3710 O.2    23  ASP23      -0.2715
     16  CB        14.7150  -26.5370   44.1010 C.3    23  ASP23       0.1450
     17  CG        15.5440  -27.5540   44.8590 C.2    23  ASP23       0.3671
     18  OD1       16.4200  -28.1830   44.2350 O.co2  23  ASP23      -0.2456
     19  OD2       15.3050  -27.7500   46.0710 O.co2  23  ASP23      -0.2456
     20  N         14.1760  -24.3160   46.3630 N.am   24  GLU24      -0.1964
     21  CA        14.0690  -23.9370   47.7570 C.3    24  GLU24       0.1718
     22  C         12.7180  -24.4530   48.2450 C.2    24  GLU24       0.2458
     23  O         11.7210  -24.3060   47.5400 O.2    24  GLU24      -0.2730
     24  CB        14.1570  -22.4110   47.8940 C.3    24  GLU24       0.0428
     25  CG        13.9650  -21.8620   49.3160 C.3    24  GLU24       0.1163
     26  CD        15.1210  -22.1720   50.2620 C.2    24  GLU24       0.3649
     27  OE1       16.1570  -22.6970   49.8150 O.co2  24  GLU24      -0.2457
     28  OE2       14.9920  -21.8900   51.4700 O.co2  24  GLU24      -0.2457
     29  N         12.6800  -25.0790   49.4350 N.am   25  PRO25      -0.2716
     30  CA        11.4120  -25.5860   49.9790 C.3    25  PRO25       0.1536
     31  C         10.3220  -24.5180   50.0450 C.2    25  PRO25       0.2598
     32  O         10.6200  -23.3510   50.3220 O.2    25  PRO25      -0.2715
     33  CB        11.7950  -26.0310   51.3900 C.3    25  PRO25       0.0310
     34  CG        13.2190  -26.4050   51.2720 C.3    25  PRO25       0.0237
     35  CD        13.8090  -25.3830   50.3320 C.3    25  PRO25       0.0939
     36  N          9.0790  -24.9190   49.7720 N.am   26  GLU26      -0.1964
     37  CA         7.9310  -24.0050   49.8020 C.3    26  GLU26       0.1733
     38  C          7.7090  -23.4590   51.2140 C.2    26  GLU26       0.2616
     39  O          7.7950  -24.2030   52.1950 O.2    26  GLU26      -0.2715
     40  CB         6.6510  -24.6780   49.2710 C.3    26  GLU26       0.0429
     41  CG         6.7110  -25.1630   47.8100 C.3    26  GLU26       0.1163
     42  CD         6.9500  -24.0510   46.7920 C.2    26  GLU26       0.3649
     43  OE1        6.5790  -22.8870   47.0710 O.co2  26  GLU26      -0.2457
     44  OE2        7.5120  -24.3430   45.7050 O.co2  26  GLU26      -0.2457
     45  N          7.4270  -22.1600   51.2960 N.am   27  ALA27      -0.1977
     46  CA         7.2310  -21.4620   52.5700 C.3    27  ALA27       0.1597
     47  C          6.0600  -22.0040   53.3770 C.2    27  ALA27       0.2287
     48  O          4.9850  -22.2780   52.8330 O.2    27  ALA27      -0.2864
     49  CB         7.0680  -19.9650   52.3350 C.3    27  ALA27       0.0319
     50  N         10.2610  -16.7770   52.1830 N.3    33  ILE33      -0.1245
     51  CA        11.6330  -16.3970   51.8760 C.3    33  ILE33       0.1561
     52  C         11.5530  -14.9280   51.4790 C.2    33  ILE33       0.2260
     53  O         10.6620  -14.5310   50.7280 O.2    33  ILE33      -0.2867
     54  CB        12.2400  -17.2220   50.7090 C.3    33  ILE33       0.0252
     55  CG1       12.0050  -18.7300   50.8820 C.3    33  ILE33       0.0019
     56  CG2       13.7390  -16.9130   50.5290 C.3    33  ILE33       0.0019
     57  CD1       12.6710  -19.3520   52.0990 C.3    33  ILE33       0.0001
     58  N         17.3950  -13.8270   48.5880 N.3    36  TYR36      -0.1241
     59  CA        18.4420  -14.8090   48.3630 C.3    36  TYR36       0.1605
     60  C         19.7750  -14.0780   48.2840 C.2    36  TYR36       0.2264
     61  O         19.8460  -12.9230   47.8350 O.2    36  TYR36      -0.2867
     62  CB        18.2110  -15.5900   47.0720 C.3    36  TYR36       0.0534
     63  CG        17.0250  -16.4970   47.1530 C.ar   36  TYR36      -0.0201
     64  CD1       17.1140  -17.7260   47.8110 C.ar   36  TYR36      -0.0009
     65  CD2       15.8040  -16.1290   46.5900 C.ar   36  TYR36      -0.0009
     66  CE1       16.0130  -18.5650   47.9070 C.ar   36  TYR36       0.0417
     67  CE2       14.6940  -16.9610   46.6850 C.ar   36  TYR36       0.0417
     68  CZ        14.8110  -18.1790   47.3400 C.ar   36  TYR36       0.1957
     69  OH        13.7320  -19.0170   47.4310 O.3    36  TYR36      -0.2866
     70  N         13.4710  -12.3370   46.7550 N.3    55  ALA55      -0.1245
     71  CA        12.8910  -13.6760   46.6690 C.3    55  ALA55       0.1562
     72  C         11.7110  -13.7470   45.7080 C.2    55  ALA55       0.2260
     73  O         11.6020  -14.7010   44.9270 O.2    55  ALA55      -0.2867
     74  CB        12.4870  -14.1910   48.0450 C.3    55  ALA55       0.0290
     75  N         11.6600  -16.1390   42.6200 N.3    59  SER59      -0.1217
     76  CA        10.7540  -17.2850   42.7950 C.3    59  SER59       0.1889
     77  C         10.0650  -17.7880   41.5290 C.2    59  SER59       0.2288
     78  O          9.7570  -18.9740   41.4370 O.2    59  SER59      -0.2866
     79  CB         9.6990  -17.0120   43.8790 C.3    59  SER59       0.2089
     80  OG         8.7690  -16.0250   43.4690 O.3    59  SER59      -0.2183
     81  N         13.0200  -19.6260   40.0120 N.3    61  GLY61      -0.1225
     82  CA        14.0190  -20.0900   40.9740 C.3    61  GLY61       0.1811
     83  C         15.3890  -19.7870   40.4100 C.2    61  GLY61       0.2280
     84  O         16.2430  -20.6710   40.3510 O.2    61  GLY61      -0.2866
@<TRIPOS>BOND
     1    81    82    1
     2    84    83    2
     3    83    82    1
     4     1     2    1
     5    78    77    2
     6    77    76    1
     7     4     3    2
     8     2     3    1
     9     2     5    1
    10    75    76    1
    11     3    12   am
    12    76    79    1
    13     8    10   ar
    14     8     6   ar
    15    10    11   ar
    16     5     6    1
    17    80    79    1
    18     6     7   ar
    19    12    13    1
    20    16    13    1
    21    16    17    1
    22    11     9   ar
    23    18    17   ar
    24    13    14    1
    25     7     9   ar
    26    17    19   ar
    27    73    72    2
    28    44    42   ar
    29    72    71    1
    30    14    20   am
    31    14    15    2
    32    20    21    1
    33    65    67   ar
    34    65    63   ar
    35    71    70    1
    36    71    74    1
    37    67    68   ar
    38    42    43   ar
    39    42    41    1
    40    62    63    1
    41    62    59    1
    42    63    64   ar
    43    68    69    1
    44    68    66   ar
    45    23    22    2
    46    21    24    1
    47    21    22    1
    48    41    40    1
    49    64    66   ar
    50    61    60    2
    51    24    25    1
    52    22    29   am
    53    60    59    1
    54    59    58    1
    55    40    37    1
    56    25    26    1
    57    29    30    1
    58    29    35    1
    59    36    37    1
    60    36    31   am
    61    37    38    1
    62    27    26   ar
    63    30    31    1
    64    30    33    1
    65    31    32    2
    66    26    28   ar
    67    35    34    1
    68    56    54    1
    69    54    55    1
    70    54    51    1
    71    53    52    2
    72    55    57    1
    73    38    45   am
    74    38    39    2
    75    34    33    1
    76    45    46    1
    77    52    51    1
    78    51    50    1
    79    49    46    1
    80    46    47    1
    81    48    47    2
