@<TRIPOS>MOLECULE
tmp/2e3xA02.pdb
 150 146 0 0 0
SMALL
GASTEIGER

@<TRIPOS>ATOM
      1  N         44.5710   53.0020   25.1310 N.3    99  ARG99      -0.1245
      2  CA        45.7960   52.6210   25.8220 C.3    99  ARG99       0.1563
      3  C         45.6930   51.1350   26.1450 C.2    99  ARG99       0.2260
      4  O         45.1770   50.7550   27.1950 O.2    99  ARG99      -0.2867
      5  CB        45.9420   53.4370   27.1110 C.3    99  ARG99       0.0307
      6  CG        46.9510   52.8940   28.1250 C.3    99  ARG99       0.0489
      7  CD        48.3950   53.1700   27.7440 C.3    99  ARG99       0.2205
      8  NE        49.3180   52.5430   28.6910 N.pl3  99  ARG99      -0.0865
      9  CZ        50.6400   52.7080   28.6870 C.cat  99  ARG99       0.5346
     10  NH1       51.3870   52.0890   29.5920 N.pl3  99  ARG99       0.1354
     11  NH2       51.2160   53.4970   27.7890 N.pl3  99  ARG99       0.1354
     12  N         49.8690   46.0520   28.6860 N.3   102  LEU102     -0.1231
     13  CA        51.2360   45.6470   28.3680 C.3   102  LEU102      0.1693
     14  C         52.0530   46.6790   27.5750 C.2   102  LEU102      0.2592
     15  O         53.1090   46.3530   27.0330 O.2   102  LEU102     -0.2718
     16  CB        51.2100   44.3190   27.6150 C.3   102  LEU102      0.0284
     17  CG        50.6360   43.1630   28.4320 C.3   102  LEU102      0.0019
     18  CD1       50.3670   41.9780   27.5290 C.3   102  LEU102      0.0001
     19  CD2       51.6050   42.7930   29.5330 C.3   102  LEU102      0.0001
     20  N         51.5650   47.9160   27.5140 N.am  103  ASN103     -0.1960
     21  CA        52.2590   48.9940   26.8070 C.3   103  ASN103      0.1819
     22  C         52.3060   48.8370   25.2990 C.2   103  ASN103      0.2622
     23  O         53.1100   49.5050   24.6520 O.2   103  ASN103     -0.2715
     24  CB        53.7070   49.1240   27.2950 C.3   103  ASN103      0.1195
     25  CG        53.8460   50.0160   28.5070 C.2   103  ASN103      0.2630
     26  OD1       53.4530   51.1820   28.4810 O.2   103  ASN103     -0.2716
     27  ND2       54.4240   49.4770   29.5770 N.am  103  ASN103     -0.0877
     28  N         51.4580   47.9820   24.7320 N.am  104  THR104     -0.1937
     29  CA        51.4950   47.7600   23.2880 C.3   104  THR104      0.2028
     30  C         50.9740   48.9200   22.4530 C.2   104  THR104      0.2642
     31  O         49.9540   49.5300   22.7720 O.2   104  THR104     -0.2714
     32  CB        50.7530   46.4710   22.9090 C.3   104  THR104      0.1808
     33  OG1       49.3670   46.6030   23.2270 O.3   104  THR104     -0.2208
     34  CG2       51.3360   45.2860   23.6870 C.3   104  THR104      0.0379
     35  N         51.6980   49.2150   21.3760 N.am  105  LEU105     -0.1963
     36  CA        51.3690   50.3140   20.4690 C.3   105  LEU105      0.1728
     37  C         50.7460   49.8890   19.1450 C.2   105  LEU105      0.2617
     38  O         50.1560   50.7110   18.4440 O.2   105  LEU105     -0.2715
     39  CB        52.6300   51.1310   20.1860 C.3   105  LEU105      0.0311
     40  CG        53.0370   52.1720   21.2300 C.3   105  LEU105      0.0022
     41  CD1       52.7120   51.6780   22.6200 C.3   105  LEU105      0.0001
     42  CD2       54.5160   52.4930   21.0770 C.3   105  LEU105      0.0001
     43  N         50.8900   48.6130   18.8010 N.am  106  GLY106     -0.1940
     44  CA        50.3390   48.1100   17.5560 C.3   106  GLY106      0.2014
     45  C         50.3050   46.5940   17.5300 C.2   106  GLY106      0.2639
     46  O         51.0840   45.9300   18.2190 O.2   106  GLY106     -0.2714
     47  N         49.4110   46.0330   16.7260 N.am  107  ILE107     -0.1963
     48  CA        49.3030   44.5860   16.6580 C.3   107  ILE107      0.1727
     49  C         48.7150   44.1400   15.3110 C.2   107  ILE107      0.2616
     50  O         47.9060   44.8550   14.7160 O.2   107  ILE107     -0.2715
     51  CB        48.4260   44.0840   17.8380 C.3   107  ILE107      0.0290
     52  CG1       48.7750   42.6450   18.1900 C.3   107  ILE107      0.0022
     53  CG2       46.9500   44.1890   17.4820 C.3   107  ILE107      0.0023
     54  CD1       48.1510   42.1840   19.4950 C.3   107  ILE107      0.0001
     55  N         49.1390   42.9720   14.8280 N.am  108  THR108     -0.1951
     56  CA        48.6320   42.4300   13.5630 C.3   108  THR108      0.1897
     57  C         48.8130   40.9160   13.5220 C.2   108  THR108      0.2313
     58  O         49.3170   40.3240   14.4720 O.2   108  THR108     -0.2863
     59  CB        49.3690   43.0320   12.3500 C.3   108  THR108      0.1794
     60  OG1       48.6990   42.6500   11.1420 O.3   108  THR108     -0.2208
     61  CG2       50.8020   42.5260   12.2960 C.3   108  THR108      0.0378
     62  N         56.4170   54.4260   11.8650 N.3   135  VAL135     -0.1231
     63  CA        57.1900   53.2350   12.1870 C.3   135  VAL135      0.1692
     64  C         56.2820   52.0950   12.6490 C.2   135  VAL135      0.2591
     65  O         56.4390   50.9560   12.2170 O.2   135  VAL135     -0.2718
     66  CB        58.2430   53.5260   13.2860 C.3   135  VAL135      0.0266
     67  CG1       58.9090   52.2350   13.7250 C.3   135  VAL135      0.0020
     68  CG2       59.2950   54.4850   12.7550 C.3   135  VAL135      0.0020
     69  N         55.3310   52.4020   13.5230 N.am  136  ILE136     -0.1980
     70  CA        54.4040   51.3930   14.0270 C.3   136  ILE136      0.1595
     71  C         53.6490   50.7720   12.8550 C.2   136  ILE136      0.2287
     72  O         53.6300   49.5520   12.6900 O.2   136  ILE136     -0.2864
     73  CB        53.3930   52.0160   15.0260 C.3   136  ILE136      0.0276
     74  CG1       54.1510   52.6800   16.1820 C.3   136  ILE136      0.0022
     75  CG2       52.4530   50.9450   15.5650 C.3   136  ILE136      0.0022
     76  CD1       53.2630   53.3200   17.2260 C.3   136  ILE136      0.0001
     77  N         55.9260   48.6410   11.1240 N.3   139  HIS139     -0.1226
     78  CA        56.2310   47.4800   11.9560 C.3   139  HIS139      0.1752
     79  C         55.1500   46.4180   11.8210 C.2   139  HIS139      0.2595
     80  O         55.4350   45.2230   11.7900 O.2   139  HIS139     -0.2718
     81  CB        56.3320   47.8930   13.4280 C.3   139  HIS139      0.0759
     82  CG        56.6910   46.7670   14.3470 C.ar  139  HIS139      0.0818
     83  ND1       57.9960   46.4410   14.6530 N.ar  139  HIS139     -0.2268
     84  CD2       55.9180   45.8580   14.9880 C.ar  139  HIS139      0.1154
     85  CE1       58.0110   45.3800   15.4410 C.ar  139  HIS139      0.1986
     86  NE2       56.7630   45.0060   15.6590 N.ar  139  HIS139     -0.2212
     87  N         53.9030   46.8640   11.7460 N.am  140  GLU140     -0.1979
     88  CA        52.7840   45.9440   11.6420 C.3   140  GLU140      0.1602
     89  C         52.6240   45.3740   10.2420 C.2   140  GLU140      0.2287
     90  O         52.6430   44.1610   10.0590 O.2   140  GLU140     -0.2864
     91  CB        51.4920   46.6410   12.0800 C.3   140  GLU140      0.0415
     92  CG        51.5720   47.2610   13.4720 C.3   140  GLU140      0.1163
     93  CD        52.0570   46.2770   14.5240 C.2   140  GLU140      0.3649
     94  OE1       51.4370   45.2030   14.6650 O.co2 140  GLU140     -0.2457
     95  OE2       53.0570   46.5750   15.2100 O.co2 140  GLU140     -0.2457
     96  N         54.8840   42.6820    9.6940 N.3   143  HIS143     -0.1241
     97  CA        54.5400   41.4510   10.3980 C.3   143  HIS143      0.1621
     98  C         53.5040   40.7350    9.5400 C.2   143  HIS143      0.2264
     99  O         53.4340   39.5070    9.5040 O.2   143  HIS143     -0.2867
    100  CB        53.9080   41.7640   11.7570 C.3   143  HIS143      0.0745
    101  CG        54.8840   41.8160   12.8840 C.ar  143  HIS143      0.0817
    102  ND1       55.7810   40.8010   13.1350 N.ar  143  HIS143     -0.2268
    103  CD2       55.0730   42.7350   13.8580 C.ar  143  HIS143      0.1154
    104  CE1       56.4790   41.0920   14.2170 C.ar  143  HIS143      0.1986
    105  NE2       56.0690   42.2600   14.6760 N.ar  143  HIS143     -0.2212
    106  N         60.5390   39.7500   14.3870 N.3   149  HIS149     -0.1241
    107  CA        61.2590   40.7220   15.2070 C.3   149  HIS149      0.1621
    108  C         62.7610   40.5150   15.0920 C.2   149  HIS149      0.2264
    109  O         63.2260   39.3880   14.9230 O.2   149  HIS149     -0.2867
    110  CB        60.8530   40.5810   16.6750 C.3   149  HIS149      0.0745
    111  CG        59.4910   41.1160   16.9820 C.ar  149  HIS149      0.0817
    112  ND1       58.7610   40.7030   18.0770 N.ar  149  HIS149     -0.2268
    113  CD2       58.7220   42.0270   16.3400 C.ar  149  HIS149      0.1154
    114  CE1       57.5990   41.3330   18.0920 C.ar  149  HIS149      0.1986
    115  NE2       57.5500   42.1420   17.0490 N.ar  149  HIS149     -0.2212
    116  N         63.2680   49.0080   12.3100 N.3   162  VAL162     -0.1245
    117  CA        61.8190   48.9150   12.3700 C.3   162  VAL162      0.1561
    118  C         61.2700   47.6700   13.0700 C.2   162  VAL162      0.2260
    119  O         60.3320   47.7610   13.8640 O.2   162  VAL162     -0.2867
    120  CB        61.2190   48.9780   10.9510 C.3   162  VAL162      0.0252
    121  CG1       59.7080   49.0030   11.0230 C.3   162  VAL162      0.0019
    122  CG2       61.7280   50.2070   10.2330 C.3   162  VAL162      0.0019
    123  N         62.3390   45.9200   15.5350 N.3   164  SER164     -0.1203
    124  CA        62.8080   45.6460   16.8890 C.3   164  SER164      0.2005
    125  C         61.5440   45.4410   17.7120 C.2   164  SER164      0.2461
    126  O         60.5350   46.1070   17.4810 O.2   164  SER164     -0.2732
    127  CB        63.6170   46.8210   17.4450 C.3   164  SER164      0.2103
    128  OG        62.7900   47.9350   17.7030 O.3   164  SER164     -0.2182
    129  N         61.5730   44.5090   18.6730 N.am  165  PRO165     -0.2717
    130  CA        60.3850   44.2670   19.4890 C.3   165  PRO165      0.1535
    131  C         60.0620   45.4330   20.4080 C.2   165  PRO165      0.2598
    132  O         59.0360   45.4260   21.0880 O.2   165  PRO165     -0.2715
    133  CB        60.7520   43.0050   20.2560 C.3   165  PRO165      0.0310
    134  CG        62.2020   43.2000   20.4890 C.3   165  PRO165      0.0237
    135  CD        62.7000   43.6850   19.1390 C.3   165  PRO165      0.0939
    136  N         60.9370   46.4350   20.4250 N.am  166  VAL166     -0.1964
    137  CA        60.7310   47.6040   21.2710 C.3   166  VAL166      0.1727
    138  C         60.9440   48.8980   20.4950 C.2   166  VAL166      0.2616
    139  O         62.0310   49.1500   19.9730 O.2   166  VAL166     -0.2715
    140  CB        61.6860   47.5980   22.4770 C.3   166  VAL166      0.0290
    141  CG1       61.1730   48.5450   23.5390 C.3   166  VAL166      0.0023
    142  CG2       61.8160   46.1910   23.0280 C.3   166  VAL166      0.0023
    143  N         59.8990   49.7170   20.4310 N.am  167  LEU167     -0.1977
    144  CA        59.9540   50.9880   19.7210 C.3   167  LEU167      0.1596
    145  C         60.7910   52.0000   20.4890 C.2   167  LEU167      0.2287
    146  O         60.4290   52.3930   21.5950 O.2   167  LEU167     -0.2864
    147  CB        58.5420   51.5420   19.5360 C.3   167  LEU167      0.0297
    148  CG        58.4050   52.7840   18.6610 C.3   167  LEU167      0.0022
    149  CD1       58.7960   52.4320   17.2360 C.3   167  LEU167      0.0001
    150  CD2       56.9760   53.2950   18.7040 C.3   167  LEU167      0.0001
@<TRIPOS>BOND
     1    99    98    2
     2    98    97    1
     3    96    97    1
     4    90    89    2
     5   122   120    1
     6    89    88    1
     7    97   100    1
     8   120   121    1
     9   120   117    1
    10    77    78    1
    11    60    59    1
    12    88    87    1
    13    88    91    1
    14    87    79   am
    15   100   101    1
    16    80    79    2
    17    79    78    1
    18    62    63    1
    19    78    81    1
    20    91    92    1
    21    63    64    1
    22    63    66    1
    23    65    64    2
    24    61    59    1
    25   116   117    1
    26    59    56    1
    27   117   118    1
    28    64    69   am
    29    72    71    2
    30    68    66    1
    31    71    70    1
    32   101   102   ar
    33   101   103   ar
    34   118   119    2
    35   102   104   ar
    36    66    67    1
    37    81    82    1
    38    92    93    1
    39    57    56    1
    40    57    58    2
    41    69    70    1
    42    56    55    1
    43   103   105   ar
    44    70    73    1
    45   104   105   ar
    46    82    83   ar
    47    82    84   ar
    48   106   107    1
    49    93    94   ar
    50    93    95   ar
    51    83    85   ar
    52    50    49    2
    53    55    49   am
    54   109   108    2
    55    84    86   ar
    56    73    75    1
    57    73    74    1
    58   108   107    1
    59   107   110    1
    60    49    48    1
    61    85    86   ar
    62   123   124    1
    63    74    76    1
    64   113   111   ar
    65   113   115   ar
    66    48    47    1
    67    48    51    1
    68   110   111    1
    69    47    45   am
    70   124   127    1
    71   124   125    1
    72   111   112   ar
    73   115   114   ar
    74   149   148    1
    75   127   128    1
    76   126   125    2
    77    53    51    1
    78    45    44    1
    79    45    46    2
    80    44    43    1
    81   125   129   am
    82    51    52    1
    83   112   114   ar
    84    52    54    1
    85    38    37    2
    86   148   150    1
    87   148   147    1
    88   129   135    1
    89   129   130    1
    90    43    37   am
    91   135   134    1
    92    37    36    1
    93   130   133    1
    94   130   131    1
    95   147   144    1
    96   144   143    1
    97   144   145    1
    98   139   138    2
    99    39    36    1
   100    39    40    1
   101   133   134    1
   102   131   136   am
   103   131   132    2
   104   136   137    1
   105   143   138   am
   106    36    35    1
   107   145   146    2
   108   138   137    1
   109    42    40    1
   110    40    41    1
   111   137   140    1
   112    35    30   am
   113    30    31    2
   114    30    29    1
   115   140   142    1
   116   140   141    1
   117    32    33    1
   118    32    29    1
   119    32    34    1
   120    29    28    1
   121    23    22    2
   122    28    22   am
   123     1     2    1
   124    22    21    1
   125     2     3    1
   126     2     5    1
   127     3     4    2
   128    21    24    1
   129    21    20    1
   130    15    14    2
   131     5     6    1
   132    24    25    1
   133    20    14   am
   134    18    17    1
   135    14    13    1
   136    16    13    1
   137    16    17    1
   138     7     6    1
   139     7     8    1
   140    11     9    1
   141    13    12    1
   142    17    19    1
   143    26    25    2
   144    25    27   am
   145     9     8    2
   146     9    10    1
