@<TRIPOS>MOLECULE
tmp/2e40B00.pdb
 141 142 0 0 0
SMALL
GASTEIGER

@<TRIPOS>ATOM
      1  N        -45.7840    6.2430  -22.0270 N.3    17  GLN17      -0.1245
      2  CA       -47.1790    6.0450  -21.6680 C.3    17  GLN17       0.1566
      3  C        -48.1500    5.8630  -22.8370 C.2    17  GLN17       0.2260
      4  O        -49.2420    5.3310  -22.6400 O.2    17  GLN17      -0.2867
      5  CB       -47.6490    7.2000  -20.7780 C.3    17  GLN17       0.0367
      6  CG       -46.9830    7.2130  -19.4100 C.3    17  GLN17       0.0905
      7  CD       -47.4940    8.3150  -18.5070 C.2    17  GLN17       0.2608
      8  OE1      -46.9650    9.4300  -18.4990 O.2    17  GLN17      -0.2717
      9  NE2      -48.5350    8.0110  -17.7390 N.am   17  GLN17      -0.0878
     10  N        -38.7890   12.2130  -19.8110 N.3   120  HIS120     -0.1226
     11  CA       -39.9820   11.8760  -19.0670 C.3   120  HIS120      0.1752
     12  C        -39.8660   10.4450  -18.5390 C.2   120  HIS120      0.2596
     13  O        -40.6940    9.5770  -18.8340 O.2   120  HIS120     -0.2718
     14  CB       -41.2550   12.0580  -19.9170 C.3   120  HIS120      0.0759
     15  CG       -42.5000   12.2250  -19.1000 C.ar  120  HIS120      0.0818
     16  ND1      -43.3440   13.3070  -19.2400 N.ar  120  HIS120     -0.2268
     17  CD2      -43.0470   11.4440  -18.1380 C.ar  120  HIS120      0.1154
     18  CE1      -44.3580   13.1830  -18.4020 C.ar  120  HIS120      0.1986
     19  NE2      -44.2030   12.0610  -17.7220 N.ar  120  HIS120     -0.2212
     20  N        -38.7800   10.2270  -17.7960 N.am  121  TRP121     -0.1976
     21  CA       -38.4790    8.9870  -17.0860 C.3   121  TRP121      0.1640
     22  C        -37.9130    7.7760  -17.8140 C.2   121  TRP121      0.2290
     23  O        -37.4530    6.8330  -17.1690 O.2   121  TRP121     -0.2864
     24  CB       -39.7170    8.5370  -16.2970 C.3   121  TRP121      0.0576
     25  CG       -40.4060    9.6370  -15.5280 C.ar  121  TRP121      0.0006
     26  CD1      -40.0160   10.9470  -15.4200 C.ar  121  TRP121      0.0946
     27  CD2      -41.6380    9.5280  -14.8060 C.ar  121  TRP121      0.0152
     28  NE1      -40.9360   11.6580  -14.6790 N.ar  121  TRP121     -0.2442
     29  CE2      -41.9410   10.8100  -14.2910 C.ar  121  TRP121      0.0810
     30  CE3      -42.5180    8.4710  -14.5440 C.ar  121  TRP121      0.0012
     31  CZ2      -43.0880   11.0600  -13.5300 C.ar  121  TRP121      0.0191
     32  CZ3      -43.6580    8.7210  -13.7860 C.ar  121  TRP121      0.0001
     33  CH2      -43.9320   10.0060  -13.2900 C.ar  121  TRP121      0.0015
     34  N        -39.1010   16.0710  -16.4670 N.3   166  ASN166     -0.1225
     35  CA       -40.4640   16.0060  -15.9780 C.3   166  ASN166      0.1785
     36  C        -40.3790   15.4610  -14.5600 C.2   166  ASN166      0.2597
     37  O        -40.0170   14.3050  -14.3560 O.2   166  ASN166     -0.2718
     38  CB       -41.3310   15.0510  -16.8010 C.3   166  ASN166      0.1169
     39  CG       -42.7530   14.9500  -16.2560 C.2   166  ASN166      0.2627
     40  OD1      -43.5470   15.8770  -16.3990 O.2   166  ASN166     -0.2716
     41  ND2      -43.0710   13.8280  -15.6120 N.am  166  ASN166     -0.0877
     42  N        -40.6760   16.3090  -13.5840 N.am  167  GLU167     -0.1979
     43  CA       -40.6960   15.9140  -12.1800 C.3   167  GLU167      0.1602
     44  C        -39.4920   15.1840  -11.5840 C.2   167  GLU167      0.2287
     45  O        -39.5180   13.9660  -11.3950 O.2   167  GLU167     -0.2864
     46  CB       -41.9480   15.0800  -11.9190 C.3   167  GLU167      0.0415
     47  CG       -43.1930   15.6870  -12.5340 C.3   167  GLU167      0.1163
     48  CD       -44.4400   14.8750  -12.2690 C.2   167  GLU167      0.3649
     49  OE1      -44.3540   13.6290  -12.2450 O.co2 167  GLU167     -0.2457
     50  OE2      -45.5130   15.4880  -12.0990 O.co2 167  GLU167     -0.2457
     51  N        -52.0010   18.3560   -9.1770 N.3   298  TYR298     -0.1241
     52  CA       -53.2440   17.5950   -9.2150 C.3   298  TYR298      0.1605
     53  C        -54.2000   17.7740   -8.0460 C.2   298  TYR298      0.2264
     54  O        -55.4130   17.6520   -8.2190 O.2   298  TYR298     -0.2867
     55  CB       -52.9160   16.1060   -9.3520 C.3   298  TYR298      0.0534
     56  CG       -52.3860   15.7460  -10.7140 C.ar  298  TYR298     -0.0201
     57  CD1      -53.2590   15.4650  -11.7650 C.ar  298  TYR298     -0.0009
     58  CD2      -51.0150   15.7470  -10.9750 C.ar  298  TYR298     -0.0009
     59  CE1      -52.7820   15.1980  -13.0410 C.ar  298  TYR298      0.0417
     60  CE2      -50.5270   15.4820  -12.2520 C.ar  298  TYR298      0.0417
     61  CZ       -51.4160   15.2100  -13.2790 C.ar  298  TYR298      0.1957
     62  OH       -50.9480   14.9550  -14.5470 O.3   298  TYR298     -0.2866
     63  N        -57.5350    7.5920   -7.4710 N.3   333  MET333     -0.1245
     64  CA       -56.3570    7.4760   -6.6200 C.3   333  MET333      0.1570
     65  C        -56.6330    8.1380   -5.2780 C.2   333  MET333      0.2261
     66  O        -57.0160    9.3070   -5.2090 O.2   333  MET333     -0.2867
     67  CB       -55.1320    8.0930   -7.3050 C.3   333  MET333      0.0387
     68  CG       -54.7140    7.3260   -8.5540 C.3   333  MET333      0.0595
     69  SD       -53.0780    7.7680   -9.1660 S.3   333  MET333     -0.1393
     70  CE       -53.4020    9.3400   -9.8100 C.3   333  MET333      0.0692
     71  N        -54.9750    9.5440   -2.7490 N.3   335  TRP335     -0.1241
     72  CA       -54.3940   10.8490   -2.4320 C.3   335  TRP335      0.1605
     73  C        -54.9030   12.0300   -3.2510 C.2   335  TRP335      0.2264
     74  O        -54.6920   13.1830   -2.8720 O.2   335  TRP335     -0.2867
     75  CB       -52.8660   10.7980   -2.5860 C.3   335  TRP335      0.0550
     76  CG       -52.3950   10.5270   -3.9980 C.ar  335  TRP335      0.0003
     77  CD1      -52.1410    9.3040   -4.5600 C.ar  335  TRP335      0.0946
     78  CD2      -52.1480   11.4980   -5.0280 C.ar  335  TRP335      0.0152
     79  NE1      -51.7530    9.4560   -5.8730 N.ar  335  TRP335     -0.2442
     80  CE2      -51.7520   10.7900   -6.1860 C.ar  335  TRP335      0.0810
     81  CE3      -52.2310   12.8980   -5.0860 C.ar  335  TRP335      0.0012
     82  CZ2      -51.4300   11.4350   -7.3900 C.ar  335  TRP335      0.0191
     83  CZ3      -51.9120   13.5390   -6.2830 C.ar  335  TRP335      0.0001
     84  CH2      -51.5180   12.8030   -7.4190 C.ar  335  TRP335      0.0015
     85  N        -49.2140   20.0330  -16.6750 N.3   362  GLU362     -0.1245
     86  CA       -50.0840   18.8880  -16.3960 C.3   362  GLU362      0.1567
     87  C        -51.0880   19.2080  -15.3010 C.2   362  GLU362      0.2260
     88  O        -50.7370   19.7640  -14.2630 O.2   362  GLU362     -0.2867
     89  CB       -49.3020   17.6490  -15.9370 C.3   362  GLU362      0.0388
     90  CG       -48.3640   17.0270  -16.9480 C.3   362  GLU362      0.1160
     91  CD       -47.8720   15.6660  -16.5000 C.2   362  GLU362      0.3649
     92  OE1      -46.8900   15.1610  -17.0760 O.co2 362  GLU362     -0.2457
     93  OE2      -48.4830   15.0920  -15.5750 O.co2 362  GLU362     -0.2457
     94  N        -53.8110   16.7390  -18.4220 N.3   412  TRP412     -0.1241
     95  CA       -53.2980   15.3800  -18.4890 C.3   412  TRP412      0.1605
     96  C        -54.5360   14.4990  -18.3680 C.2   412  TRP412      0.2264
     97  O        -55.2140   14.5310  -17.3410 O.2   412  TRP412     -0.2867
     98  CB       -52.3260   15.0710  -17.3460 C.3   412  TRP412      0.0550
     99  CG       -51.7680   13.6790  -17.4760 C.ar  412  TRP412      0.0003
    100  CD1      -52.3470   12.5160  -17.0430 C.ar  412  TRP412      0.0946
    101  CD2      -50.6040   13.2940  -18.2160 C.ar  412  TRP412      0.0152
    102  NE1      -51.6180   11.4310  -17.4790 N.ar  412  TRP412     -0.2442
    103  CE2      -50.5430   11.8820  -18.2010 C.ar  412  TRP412      0.0810
    104  CE3      -49.6070   14.0070  -18.8950 C.ar  412  TRP412      0.0012
    105  CZ2      -49.5240   11.1670  -18.8420 C.ar  412  TRP412      0.0191
    106  CZ3      -48.5910   13.2940  -19.5330 C.ar  412  TRP412      0.0001
    107  CH2      -48.5590   11.8890  -19.5000 C.ar  412  TRP412      0.0015
    108  N        -50.5460    4.2510  -16.9120 N.3   419  GLU419     -0.1231
    109  CA       -50.2750    5.0320  -15.7130 C.3   419  GLU419      0.1699
    110  C        -49.2230    4.3750  -14.8190 C.2   419  GLU419      0.2592
    111  O        -49.4770    4.0390  -13.6630 O.2   419  GLU419     -0.2718
    112  CB       -51.5800    5.2740  -14.9430 C.3   419  GLU419      0.0402
    113  CG       -51.4630    6.1770  -13.7120 C.3   419  GLU419      0.1161
    114  CD       -50.7640    7.5020  -13.9860 C.2   419  GLU419      0.3649
    115  OE1      -50.8780    8.0300  -15.1110 O.co2 419  GLU419     -0.2457
    116  OE2      -50.1080    8.0270  -13.0600 O.co2 419  GLU419     -0.2457
    117  N        -48.0390    4.1830  -15.3890 N.am  420  TRP420     -0.1976
    118  CA       -46.9000    3.6170  -14.6820 C.3   420  TRP420      0.1640
    119  C        -47.2040    2.3930  -13.8080 C.2   420  TRP420      0.2290
    120  O        -47.7520    1.4060  -14.2900 O.2   420  TRP420     -0.2864
    121  CB       -46.2480    4.7320  -13.8600 C.3   420  TRP420      0.0576
    122  CG       -45.9950    5.9750  -14.6840 C.ar  420  TRP420      0.0006
    123  CD1      -46.6320    7.1780  -14.5740 C.ar  420  TRP420      0.0946
    124  CD2      -45.0490    6.1190  -15.7540 C.ar  420  TRP420      0.0152
    125  NE1      -46.1420    8.0640  -15.5090 N.ar  420  TRP420     -0.2442
    126  CE2      -45.1700    7.4380  -16.2470 C.ar  420  TRP420      0.0810
    127  CE3      -44.1120    5.2600  -16.3470 C.ar  420  TRP420      0.0012
    128  CZ2      -44.3830    7.9220  -17.3020 C.ar  420  TRP420      0.0191
    129  CZ3      -43.3270    5.7420  -17.4010 C.ar  420  TRP420      0.0001
    130  CH2      -43.4730    7.0620  -17.8650 C.ar  420  TRP420      0.0015
    131  N        -56.8820    8.7210  -17.1340 N.3   428  PHE428     -0.1241
    132  CA       -56.7080   10.1720  -17.0570 C.3   428  PHE428      0.1605
    133  C        -57.1220   10.9650  -18.2960 C.2   428  PHE428      0.2264
    134  O        -57.1520   12.1970  -18.2610 O.2   428  PHE428     -0.2867
    135  CB       -55.2390   10.4960  -16.7750 C.3   428  PHE428      0.0534
    136  CG       -54.9030   10.6250  -15.3190 C.ar  428  PHE428     -0.0203
    137  CD1      -55.1680   11.8070  -14.6340 C.ar  428  PHE428     -0.0042
    138  CD2      -54.2910    9.5800  -14.6410 C.ar  428  PHE428     -0.0042
    139  CE1      -54.8220   11.9470  -13.2940 C.ar  428  PHE428     -0.0003
    140  CE2      -53.9420    9.7060  -13.3000 C.ar  428  PHE428     -0.0003
    141  CZ       -54.2070   10.8950  -12.6250 C.ar  428  PHE428     -0.0000
@<TRIPOS>BOND
     1     3     4    2
     2     3     2    1
     3     1     2    1
     4     2     5    1
     5     5     6    1
     6    14    15    1
     7    14    11    1
     8    10    11    1
     9   106   107   ar
    10   106   104   ar
    11   107   105   ar
    12     6     7    1
    13    16    15   ar
    14    16    18   ar
    15    15    17   ar
    16    11    12    1
    17   104   101   ar
    18   105   103   ar
    19    13    12    2
    20    12    20   am
    21     7     8    2
    22     7     9   am
    23    95    94    1
    24    95    96    1
    25    95    98    1
    26    18    19   ar
    27    96    97    2
    28   133   134    2
    29   133   132    1
    30   101   103   ar
    31   101    99   ar
    32   103   102   ar
    33    17    19   ar
    34   130   129   ar
    35   130   128   ar
    36    22    23    2
    37    22    21    1
    38    20    21    1
    39   102   100   ar
    40    99    98    1
    41    99   100   ar
    42   129   127   ar
    43   128   126   ar
    44   131   132    1
    45    21    24    1
    46    92    91   ar
    47   132   135    1
    48    90    91    1
    49    90    89    1
    50   108   109    1
    51    38    39    1
    52    38    35    1
    53   135   136    1
    54    85    86    1
    55    91    93   ar
    56    34    35    1
    57    40    39    2
    58    86    89    1
    59    86    87    1
    60   127   124   ar
    61    24    25    1
    62    39    41   am
    63   126   124   ar
    64   126   125   ar
    65    35    36    1
    66   124   122   ar
    67   109   112    1
    68   109   110    1
    69    25    26   ar
    70    25    27   ar
    71   125   123   ar
    72    26    28   ar
    73   117   110   am
    74   117   118    1
    75   136   138   ar
    76   136   137   ar
    77    87    88    2
    78   115   114   ar
    79   112   113    1
    80   110   111    2
    81    27    30   ar
    82    27    29   ar
    83   122   123   ar
    84   122   121    1
    85   118   121    1
    86   118   119    1
    87    28    29   ar
    88   138   140   ar
    89   137   139   ar
    90    36    37    2
    91    36    42   am
    92    62    61    1
    93    30    32   ar
    94    29    31   ar
    95   120   119    2
    96   114   113    1
    97   114   116   ar
    98    32    33   ar
    99    42    43    1
   100    31    33   ar
   101   140   141   ar
   102   139   141   ar
   103    61    59   ar
   104    61    60   ar
   105    59    57   ar
   106    47    48    1
   107    47    46    1
   108    48    49   ar
   109    48    50   ar
   110    60    58   ar
   111    43    46    1
   112    43    44    1
   113    57    56   ar
   114    44    45    2
   115    58    56   ar
   116    56    55    1
   117    70    69    1
   118    55    52    1
   119    52    51    1
   120    52    53    1
   121    69    68    1
   122    68    67    1
   123    54    53    2
   124    63    64    1
   125    84    82   ar
   126    84    83   ar
   127    82    80   ar
   128    67    64    1
   129    64    65    1
   130    83    81   ar
   131    80    79   ar
   132    80    78   ar
   133    79    77   ar
   134    65    66    2
   135    81    78   ar
   136    78    76   ar
   137    77    76   ar
   138    76    75    1
   139    73    74    2
   140    73    72    1
   141    71    72    1
   142    75    72    1
