@<TRIPOS>MOLECULE
tmp/2e4gA00.pdb
 161 159 0 0 0
SMALL
GASTEIGER

@<TRIPOS>ATOM
      1  N          4.3340   31.4970  -15.3930 N.3    52  ILE52      -0.1231
      2  CA         4.2180   30.9980  -14.0290 C.3    52  ILE52       0.1678
      3  C          3.7420   29.5470  -14.0640 C.2    52  ILE52       0.2434
      4  O          3.1520   29.1020  -15.0470 O.2    52  ILE52      -0.2733
      5  CB         3.2730   31.8880  -13.1810 C.3    52  ILE52       0.0265
      6  CG1        1.8620   31.9070  -13.7760 C.3    52  ILE52       0.0019
      7  CG2        3.8410   33.3120  -13.1150 C.3    52  ILE52       0.0020
      8  CD1        0.9130   32.8740  -13.0470 C.3    52  ILE52       0.0001
      9  N          3.9920   28.7890  -12.9870 N.am   53  PRO53      -0.2718
     10  CA         3.6150   27.3740  -12.8870 C.3    53  PRO53       0.1535
     11  C          2.2440   26.9380  -13.3900 C.2    53  PRO53       0.2598
     12  O          2.1420   25.9050  -14.0560 O.2    53  PRO53      -0.2715
     13  CB         3.8080   27.0690  -11.4060 C.3    53  PRO53       0.0310
     14  CG         4.9340   28.0140  -11.0210 C.3    53  PRO53       0.0237
     15  CD         4.4930   29.2830  -11.6930 C.3    53  PRO53       0.0939
     16  N          1.1920   27.7010  -13.0930 N.am   54  ASN54      -0.1973
     17  CA        -0.1320   27.2700  -13.5260 C.3    54  ASN54       0.1688
     18  C         -0.3970   27.3120  -15.0220 C.2    54  ASN54       0.2292
     19  O         -1.4990   26.9850  -15.4660 O.2    54  ASN54      -0.2864
     20  CB        -1.2530   28.0010  -12.7560 C.3    54  ASN54       0.1181
     21  CG        -1.2770   29.4970  -12.9910 C.2    54  ASN54       0.2629
     22  OD1       -0.9240   29.9890  -14.0620 O.2    54  ASN54      -0.2716
     23  ND2       -1.7360   30.2300  -11.9870 N.am   54  ASN54      -0.0877
     24  N         12.1850   28.5870  -15.9000 N.3    79  LYS79      -0.1245
     25  CA        12.1920   29.7570  -15.0330 C.3    79  LYS79       0.1561
     26  C         11.8680   29.3110  -13.6080 C.2    79  LYS79       0.2260
     27  O         10.8250   28.7150  -13.3630 O.2    79  LYS79      -0.2867
     28  CB        11.1420   30.7690  -15.4980 C.3    79  LYS79       0.0271
     29  CG        10.9800   31.9490  -14.5570 C.3    79  LYS79       0.0035
     30  CD         9.7550   32.7780  -14.9110 C.3    79  LYS79       0.0206
     31  CE         9.4270   33.7460  -13.7890 C.3    79  LYS79       0.1093
     32  NZ         8.2150   34.5550  -14.0900 N.3    79  LYS79      -0.1314
     33  N         12.2970   35.2370  -10.5160 N.3    82  ILE82      -0.1245
     34  CA        12.6120   36.4910  -11.1700 C.3    82  ILE82       0.1561
     35  C         13.7000   37.0510  -10.2630 C.2    82  ILE82       0.2260
     36  O         13.5100   37.1480   -9.0460 O.2    82  ILE82      -0.2867
     37  CB        11.4470   37.4910  -11.1680 C.3    82  ILE82       0.0252
     38  CG1       10.3190   37.0060  -12.0870 C.3    82  ILE82       0.0019
     39  CG2       11.9460   38.8550  -11.6390 C.3    82  ILE82       0.0019
     40  CD1        9.1500   37.9740  -12.1390 C.3    82  ILE82       0.0001
     41  N         12.3880   36.5360   -6.3420 N.3   109  HIS109     -0.1226
     42  CA        10.9710   36.3460   -6.1000 C.3   109  HIS109      0.1752
     43  C         10.7860   34.9620   -6.6920 C.2   109  HIS109      0.2597
     44  O         10.6350   34.8220   -7.9080 O.2   109  HIS109     -0.2718
     45  CB        10.0880   37.3260   -6.8650 C.3   109  HIS109      0.0759
     46  CG         8.6250   37.1000   -6.6230 C.ar  109  HIS109      0.0818
     47  ND1        7.6360   37.7190   -7.3580 N.ar  109  HIS109     -0.2268
     48  CD2        7.9860   36.3140   -5.7220 C.ar  109  HIS109      0.1154
     49  CE1        6.4530   37.3240   -6.9210 C.ar  109  HIS109      0.1986
     50  NE2        6.6370   36.4720   -5.9290 N.ar  109  HIS109     -0.2212
     51  N         10.8410   33.9400   -5.8420 N.am  110  SER110     -0.1938
     52  CA        10.7060   32.5560   -6.2940 C.3   110  SER110      0.2055
     53  C          9.2780   32.0440   -6.2130 C.2   110  SER110      0.2643
     54  O          8.4210   32.6380   -5.5570 O.2   110  SER110     -0.2714
     55  CB        11.5910   31.6180   -5.4540 C.3   110  SER110      0.2130
     56  OG        12.9550   31.9930   -5.4980 O.3   110  SER110     -0.2179
     57  N          9.0420   30.9170   -6.8770 N.am  111  PHE111     -0.1959
     58  CA         7.7380   30.2800   -6.8680 C.3   111  PHE111      0.1771
     59  C          7.6130   29.4580   -5.5930 C.2   111  PHE111      0.2620
     60  O          8.5950   29.2650   -4.8650 O.2   111  PHE111     -0.2715
     61  CB         7.5910   29.3780   -8.0930 C.3   111  PHE111      0.0574
     62  CG         7.5320   30.1310   -9.3850 C.ar  111  PHE111     -0.0200
     63  CD1        6.5770   31.1280   -9.5720 C.ar  111  PHE111     -0.0042
     64  CD2        8.4250   29.8480  -10.4170 C.ar  111  PHE111     -0.0042
     65  CE1        6.5060   31.8350  -10.7680 C.ar  111  PHE111     -0.0003
     66  CE2        8.3680   30.5450  -11.6200 C.ar  111  PHE111     -0.0003
     67  CZ         7.4040   31.5460  -11.8000 C.ar  111  PHE111     -0.0000
     68  N          6.4060   28.9800   -5.3130 N.am  112  GLY112     -0.1954
     69  CA         6.1990   28.1870   -4.1160 C.3   112  GLY112      0.1869
     70  C          5.5870   29.0030   -2.9970 C.2   112  GLY112      0.2309
     71  O          5.2430   30.1740   -3.1780 O.2   112  GLY112     -0.2863
     72  N          6.0380   41.1350  -13.3910 N.3   357  GLU357     -0.1245
     73  CA         5.8010   39.9090  -12.6380 C.3   357  GLU357      0.1567
     74  C          5.2170   38.7680  -13.4770 C.2   357  GLU357      0.2260
     75  O          4.4910   37.9220  -12.9630 O.2   357  GLU357     -0.2867
     76  CB         4.9120   40.1870  -11.4190 C.3   357  GLU357      0.0388
     77  CG         5.6080   40.9330  -10.2650 C.3   357  GLU357      0.1160
     78  CD         6.6520   40.0900   -9.5280 C.2   357  GLU357      0.3649
     79  OE1        6.6980   38.8570   -9.7370 O.co2 357  GLU357     -0.2457
     80  OE2        7.4180   40.6600   -8.7170 O.co2 357  GLU357     -0.2457
     81  N          2.7220   38.3140  -15.7850 N.3   359  THR359     -0.1218
     82  CA         1.2860   38.0390  -15.7100 C.3   359  THR359      0.1862
     83  C          0.5240   38.0880  -17.0350 C.2   359  THR359      0.2287
     84  O         -0.6360   37.6830  -17.1020 O.2   359  THR359     -0.2866
     85  CB         0.6050   39.0150  -14.7310 C.3   359  THR359      0.1770
     86  OG1        0.9100   40.3600  -15.1130 O.3   359  THR359     -0.2211
     87  CG2        1.0870   38.7780  -13.3130 C.3   359  THR359      0.0375
     88  N         -1.8540   24.2610   -4.1570 N.3   454  TYR454     -0.1227
     89  CA        -1.9110   25.6160   -4.6940 C.3   454  TYR454      0.1736
     90  C         -1.8420   25.6470   -6.2220 C.2   454  TYR454      0.2595
     91  O         -2.7930   26.0690   -6.8850 O.2   454  TYR454     -0.2718
     92  CB        -0.7600   26.4380   -4.1050 C.3   454  TYR454      0.0548
     93  CG        -0.8110   27.9240   -4.3860 C.ar  454  TYR454     -0.0200
     94  CD1       -1.7390   28.7450   -3.7450 C.ar  454  TYR454     -0.0009
     95  CD2        0.1100   28.5190   -5.2480 C.ar  454  TYR454     -0.0009
     96  CE1       -1.7410   30.1250   -3.9510 C.ar  454  TYR454      0.0417
     97  CE2        0.1160   29.8990   -5.4610 C.ar  454  TYR454      0.0417
     98  CZ        -0.8050   30.6940   -4.8110 C.ar  454  TYR454      0.1957
     99  OH        -0.7750   32.0580   -5.0020 O.3   454  TYR454     -0.2866
    100  N         -0.7180   25.1940   -6.7760 N.am  455  TYR455     -0.1976
    101  CA        -0.5270   25.1890   -8.2240 C.3   455  TYR455      0.1639
    102  C         -1.3260   24.1110   -8.9440 C.2   455  TYR455      0.2290
    103  O         -1.4280   24.1260  -10.1670 O.2   455  TYR455     -0.2864
    104  CB         0.9560   25.0260   -8.5650 C.3   455  TYR455      0.0560
    105  CG         1.8260   26.1870   -8.1270 C.ar  455  TYR455     -0.0198
    106  CD1        1.5720   27.4850   -8.5710 C.ar  455  TYR455     -0.0009
    107  CD2        2.9210   25.9810   -7.2900 C.ar  455  TYR455     -0.0009
    108  CE1        2.3920   28.5490   -8.1950 C.ar  455  TYR455      0.0417
    109  CE2        3.7460   27.0330   -6.9080 C.ar  455  TYR455      0.0417
    110  CZ         3.4780   28.3110   -7.3630 C.ar  455  TYR455      0.1957
    111  OH         4.2970   29.3470   -6.9860 O.3   455  TYR455     -0.2866
    112  N         -5.6460   28.8420   -6.1800 N.3   461  GLU461     -0.1245
    113  CA        -4.6750   29.8850   -6.4910 C.3   461  GLU461      0.1567
    114  C         -5.2900   31.2140   -6.9140 C.2   461  GLU461      0.2260
    115  O         -4.8610   32.2730   -6.4480 O.2   461  GLU461     -0.2867
    116  CB        -3.6930   29.4200   -7.5780 C.3   461  GLU461      0.0388
    117  CG        -2.6740   30.5050   -7.9560 C.3   461  GLU461      0.1160
    118  CD        -1.5910   30.0190   -8.9090 C.2   461  GLU461      0.3649
    119  OE1       -1.8620   29.1020   -9.7140 O.co2 461  GLU461     -0.2457
    120  OE2       -0.4710   30.5740   -8.8610 O.co2 461  GLU461     -0.2457
    121  N         -4.0490   34.5800   -5.4220 N.3   465  PHE465     -0.1227
    122  CA        -3.0010   34.7340   -6.4260 C.3   465  PHE465      0.1736
    123  C         -1.7290   35.3980   -5.9210 C.2   465  PHE465      0.2595
    124  O         -0.6380   34.8950   -6.1710 O.2   465  PHE465     -0.2718
    125  CB        -3.5220   35.4820   -7.6580 C.3   465  PHE465      0.0547
    126  CG        -2.6030   35.3790   -8.8370 C.ar  465  PHE465     -0.0202
    127  CD1       -2.3500   34.1430   -9.4210 C.ar  465  PHE465     -0.0042
    128  CD2       -1.9160   36.4940   -9.3020 C.ar  465  PHE465     -0.0042
    129  CE1       -1.4190   34.0110  -10.4480 C.ar  465  PHE465     -0.0003
    130  CE2       -0.9810   36.3770  -10.3300 C.ar  465  PHE465     -0.0003
    131  CZ        -0.7300   35.1290  -10.9020 C.ar  465  PHE465     -0.0000
    132  N         -1.8640   36.5370   -5.2480 N.am  466  TRP466     -0.1962
    133  CA        -0.7110   37.2250   -4.6710 C.3   466  TRP466      0.1771
    134  C         -0.8100   36.9040   -3.1830 C.2   466  TRP466      0.2619
    135  O         -1.6320   37.4860   -2.4750 O.2   466  TRP466     -0.2715
    136  CB        -0.7980   38.7420   -4.8780 C.3   466  TRP466      0.0590
    137  CG        -0.8230   39.1850   -6.3190 C.ar  466  TRP466      0.0006
    138  CD1       -1.8600   39.8050   -6.9680 C.ar  466  TRP466      0.0946
    139  CD2        0.2210   39.0290   -7.2930 C.ar  466  TRP466      0.0152
    140  NE1       -1.5250   40.0400   -8.2810 N.ar  466  TRP466     -0.2442
    141  CE2       -0.2560   39.5740   -8.5090 C.ar  466  TRP466      0.0810
    142  CE3        1.5130   38.4800   -7.2590 C.ar  466  TRP466      0.0012
    143  CZ2        0.5110   39.5850   -9.6810 C.ar  466  TRP466      0.0191
    144  CZ3        2.2790   38.4900   -8.4300 C.ar  466  TRP466      0.0001
    145  CH2        1.7740   39.0390   -9.6210 C.ar  466  TRP466      0.0015
    146  N          0.0070   35.9670   -2.7120 N.am  467  ASN467     -0.1972
    147  CA        -0.0410   35.5740   -1.3080 C.3   467  ASN467      0.1688
    148  C          1.1210   36.1460   -0.5020 C.2   467  ASN467      0.2292
    149  O          2.0440   36.7320   -1.0670 O.2   467  ASN467     -0.2864
    150  CB        -0.0890   34.0430   -1.1900 C.3   467  ASN467      0.1181
    151  CG         1.2070   33.3720   -1.6190 C.2   467  ASN467      0.2629
    152  OD1        2.1740   33.3240   -0.8580 O.2   467  ASN467     -0.2716
    153  ND2        1.2310   32.8480   -2.8420 N.am  467  ASN467     -0.0877
    154  N          4.6870   36.0490   -1.7990 N.3   470  ASN470     -0.1240
    155  CA         4.9830   36.9830   -2.8780 C.3   470  ASN470      0.1653
    156  C          5.2300   38.3830   -2.3330 C.2   470  ASN470      0.2266
    157  O          6.1990   39.0430   -2.7100 O.2   470  ASN470     -0.2867
    158  CB         3.8220   36.9990   -3.8770 C.3   470  ASN470      0.1155
    159  CG         3.3790   35.5940   -4.2750 C.2   470  ASN470      0.2627
    160  OD1        2.2060   35.2310   -4.1350 O.2   470  ASN470     -0.2716
    161  ND2        4.3200   34.7950   -4.7680 N.am  470  ASN470     -0.0877
@<TRIPOS>BOND
     1    84    83    2
     2    83    82    1
     3    24    25    1
     4    81    82    1
     5    82    85    1
     6    28    25    1
     7    28    29    1
     8    19    18    2
     9     1     2    1
    10    86    85    1
    11     4     3    2
    12    25    26    1
    13    18    17    1
    14    30    29    1
    15    30    31    1
    16    85    87    1
    17    32    31    1
    18     3     2    1
    19     3     9   am
    20    22    21    2
    21    12    11    2
    22     2     5    1
    23     6     5    1
    24     6     8    1
    25    26    27    2
    26    17    16    1
    27    17    20    1
    28    74    75    2
    29    74    73    1
    30    72    73    1
    31    11    16   am
    32    11    10    1
    33     5     7    1
    34    21    20    1
    35    21    23   am
    36     9    10    1
    37     9    15    1
    38    10    13    1
    39    73    76    1
    40    40    38    1
    41    38    37    1
    42    67    66   ar
    43    67    65   ar
    44    15    14    1
    45    39    37    1
    46    66    64   ar
    47    76    77    1
    48    13    14    1
    49    34    37    1
    50    34    33    1
    51    34    35    1
    52   131   129   ar
    53   131   130   ar
    54    65    63   ar
    55   129   127   ar
    56    64    62   ar
    57   130   128   ar
    58    77    78    1
    59    35    36    2
    60   103   102    2
    61    79    78   ar
    62   119   118   ar
    63   143   145   ar
    64   143   141   ar
    65   145   144   ar
    66    63    62   ar
    67    78    80   ar
    68   127   126   ar
    69    62    61    1
    70   128   126   ar
    71   102   101    1
    72   118   120   ar
    73   118   117    1
    74   126   125    1
    75   106   108   ar
    76   106   105   ar
    77   104   101    1
    78   104   105    1
    79   141   140   ar
    80   141   139   ar
    81   144   142   ar
    82   140   138   ar
    83   101   100    1
    84   108   110   ar
    85   105   107   ar
    86    61    58    1
    87   117   116    1
    88    44    43    2
    89   125   122    1
    90   116   113    1
    91   110   111    1
    92   110   109   ar
    93    47    49   ar
    94    47    46   ar
    95   139   142   ar
    96   139   137   ar
    97   107   109   ar
    98   138   137   ar
    99    49    50   ar
   100   114   113    1
   101   114   115    2
   102    91    90    2
   103    57    58    1
   104    57    53   am
   105    58    59    1
   106    45    46    1
   107    45    42    1
   108   100    90   am
   109    43    42    1
   110    43    51   am
   111    46    48   ar
   112   113   112    1
   113   122   123    1
   114   122   121    1
   115    41    42    1
   116   137   136    1
   117    52    53    1
   118    52    51    1
   119    52    55    1
   120    90    89    1
   121    53    54    2
   122   124   123    2
   123    50    48   ar
   124   123   132   am
   125    59    68   am
   126    59    60    2
   127    56    55    1
   128    97    95   ar
   129    97    98   ar
   130    68    69    1
   131    95    93   ar
   132   132   133    1
   133    99    98    1
   134   136   133    1
   135    98    96   ar
   136   161   159   am
   137    89    88    1
   138    89    92    1
   139   133   134    1
   140    93    92    1
   141    93    94   ar
   142   159   160    2
   143   159   158    1
   144    69    70    1
   145    96    94   ar
   146   158   155    1
   147   134   146   am
   148   134   135    2
   149    71    70    2
   150   155   156    1
   151   155   154    1
   152   153   151   am
   153   146   147    1
   154   157   156    2
   155   151   150    1
   156   151   152    2
   157   147   150    1
   158   147   148    1
   159   149   148    2
