@<TRIPOS>MOLECULE
tmp/2e4oD00.pdb
 147 141 0 0 0
SMALL
GASTEIGER

@<TRIPOS>ATOM
      1  N         15.8630  -63.0330   57.0510 N.3    55  TYR55      -0.1241
      2  CA        15.0400  -63.7740   56.0970 C.3    55  TYR55       0.1605
      3  C         13.9580  -64.6090   56.7530 C.2    55  TYR55       0.2264
      4  O         12.8040  -64.5830   56.3250 O.2    55  TYR55      -0.2867
      5  CB        15.9110  -64.6990   55.2440 C.3    55  TYR55       0.0534
      6  CG        16.6760  -64.0000   54.1550 C.ar   55  TYR55      -0.0201
      7  CD1       16.0310  -63.5240   53.0130 C.ar   55  TYR55      -0.0009
      8  CD2       18.0490  -63.8170   54.2600 C.ar   55  TYR55      -0.0009
      9  CE1       16.7470  -62.8840   52.0010 C.ar   55  TYR55       0.0417
     10  CE2       18.7680  -63.1790   53.2610 C.ar   55  TYR55       0.0417
     11  CZ        18.1160  -62.7170   52.1350 C.ar   55  TYR55       0.1957
     12  OH        18.8540  -62.1100   51.1460 O.3    55  TYR55      -0.2866
     13  N         23.0130  -71.6710   55.2730 N.3    71  LEU71      -0.1245
     14  CA        23.3280  -70.4940   54.4760 C.3    71  LEU71       0.1561
     15  C         24.7800  -70.0930   54.6640 C.2    71  LEU71       0.2260
     16  O         25.4740  -69.7630   53.7010 O.2    71  LEU71      -0.2867
     17  CB        22.4040  -69.3310   54.8430 C.3    71  LEU71       0.0270
     18  CG        20.9220  -69.5630   54.5500 C.3    71  LEU71       0.0019
     19  CD1       20.2030  -68.2220   54.5320 C.3    71  LEU71       0.0001
     20  CD2       20.7570  -70.2750   53.2060 C.3    71  LEU71       0.0001
     21  N         26.7060  -72.2040   52.3820 N.3    74  LEU74      -0.1231
     22  CA        26.4630  -71.9520   50.9720 C.3    74  LEU74       0.1693
     23  C         27.1620  -70.6420   50.5910 C.2    74  LEU74       0.2592
     24  O         27.7150  -70.5100   49.4980 O.2    74  LEU74      -0.2718
     25  CB        24.9610  -71.8570   50.6970 C.3    74  LEU74       0.0284
     26  CG        24.1880  -73.1720   50.7800 C.3    74  LEU74       0.0019
     27  CD1       22.7410  -72.9430   50.3770 C.3    74  LEU74       0.0001
     28  CD2       24.8350  -74.2030   49.8600 C.3    74  LEU74       0.0001
     29  N         27.1430  -69.6770   51.5060 N.am   75  PHE75      -0.1976
     30  CA        27.7950  -68.3910   51.2790 C.3    75  PHE75       0.1639
     31  C         29.3090  -68.5700   51.2590 C.2    75  PHE75       0.2290
     32  O         29.9980  -67.9510   50.4580 O.2    75  PHE75      -0.2864
     33  CB        27.4300  -67.3870   52.3800 C.3    75  PHE75       0.0560
     34  CG        26.2300  -66.5380   52.0650 C.ar   75  PHE75      -0.0200
     35  CD1       25.0360  -66.7110   52.7580 C.ar   75  PHE75      -0.0042
     36  CD2       26.3070  -65.5370   51.0970 C.ar   75  PHE75      -0.0042
     37  CE1       23.9380  -65.8970   52.4980 C.ar   75  PHE75      -0.0003
     38  CE2       25.2140  -64.7150   50.8250 C.ar   75  PHE75      -0.0003
     39  CZ        24.0270  -64.8910   51.5260 C.ar   75  PHE75      -0.0000
     40  N         30.2390  -70.3120   48.2630 N.3    78  ASP78      -0.1239
     41  CA        30.0130  -69.2900   47.2450 C.3    78  ASP78       0.1674
     42  C         31.2800  -68.4690   46.9780 C.2    78  ASP78       0.2266
     43  O         31.7810  -68.4200   45.8540 O.2    78  ASP78      -0.2867
     44  CB        28.8820  -68.3600   47.6890 C.3    78  ASP78       0.1410
     45  CG        28.3550  -67.5070   46.5550 C.2    78  ASP78       0.3668
     46  OD1       27.6750  -68.0610   45.6600 O.co2  78  ASP78      -0.2456
     47  OD2       28.6260  -66.2870   46.5510 O.co2  78  ASP78      -0.2456
     48  N         20.1430  -75.4750   43.4600 N.3   141  PHE141     -0.1241
     49  CA        20.8950  -74.2540   43.7020 C.3   141  PHE141      0.1605
     50  C         22.4020  -74.4360   43.5520 C.2   141  PHE141      0.2264
     51  O         23.0720  -73.6300   42.9080 O.2   141  PHE141     -0.2867
     52  CB        20.5940  -73.7340   45.1020 C.3   141  PHE141      0.0534
     53  CG        21.4300  -72.5560   45.4940 C.ar  141  PHE141     -0.0203
     54  CD1       21.1410  -71.2880   44.9980 C.ar  141  PHE141     -0.0042
     55  CD2       22.5290  -72.7190   46.3360 C.ar  141  PHE141     -0.0042
     56  CE1       21.9310  -70.2000   45.3300 C.ar  141  PHE141     -0.0003
     57  CE2       23.3270  -71.6360   46.6750 C.ar  141  PHE141     -0.0003
     58  CZ        23.0310  -70.3700   46.1710 C.ar  141  PHE141     -0.0000
     59  N         17.8100  -69.8740   43.6490 N.3   168  GLY168     -0.1210
     60  CA        18.0890  -69.3860   44.9820 C.3   168  GLY168      0.1956
     61  C         16.8220  -69.0360   45.7340 C.2   168  GLY168      0.2611
     62  O         16.6300  -69.4680   46.8700 O.2   168  GLY168     -0.2717
     63  N         15.9420  -68.2610   45.1080 N.am  169  LYS169     -0.1979
     64  CA        14.7100  -67.8700   45.7650 C.3   169  LYS169      0.1596
     65  C         13.8700  -69.0960   46.1010 C.2   169  LYS169      0.2287
     66  O         13.1790  -69.1210   47.1170 O.2   169  LYS169     -0.2864
     67  CB        13.9550  -66.8750   44.8900 C.3   169  LYS169      0.0298
     68  CG        14.8600  -65.7090   44.4180 C.3   169  LYS169      0.0038
     69  CD        15.5660  -65.0000   45.5950 C.3   169  LYS169      0.0206
     70  CE        16.6410  -63.9990   45.1420 C.3   169  LYS169      0.1093
     71  NZ        17.8430  -64.6630   44.5420 N.3   169  LYS169     -0.1314
     72  N         15.1370  -71.9940   46.8690 N.3   171  LEU171     -0.1231
     73  CA        15.8630  -72.5560   48.0000 C.3   171  LEU171      0.1693
     74  C         15.4410  -71.8370   49.2940 C.2   171  LEU171      0.2591
     75  O         15.0910  -72.4770   50.2840 O.2   171  LEU171     -0.2718
     76  CB        17.3700  -72.3930   47.7780 C.3   171  LEU171      0.0284
     77  CG        18.3170  -72.6780   48.9430 C.3   171  LEU171      0.0019
     78  CD1       17.9520  -73.9850   49.5910 C.3   171  LEU171      0.0001
     79  CD2       19.7410  -72.7050   48.4330 C.3   171  LEU171      0.0001
     80  N         15.4500  -70.5080   49.2700 N.am  172  LEU172     -0.1980
     81  CA        15.0790  -69.7150   50.4410 C.3   172  LEU172      0.1596
     82  C         13.6750  -70.0180   50.9490 C.2   172  LEU172      0.2287
     83  O         13.4610  -70.1320   52.1560 O.2   172  LEU172     -0.2864
     84  CB        15.1970  -68.2190   50.1380 C.3   172  LEU172      0.0297
     85  CG        16.5890  -67.6340   49.8510 C.3   172  LEU172      0.0022
     86  CD1       16.4720  -66.1310   49.5770 C.3   172  LEU172      0.0001
     87  CD2       17.5140  -67.8710   51.0340 C.3   172  LEU172      0.0001
     88  N         18.1360  -57.2920   44.7960 N.3   207  ASN207     -0.1240
     89  CA        19.5320  -57.7280   44.7940 C.3   207  ASN207      0.1653
     90  C         20.2920  -57.0600   43.6500 C.2   207  ASN207      0.2266
     91  O         21.4030  -56.5590   43.8550 O.2   207  ASN207     -0.2867
     92  CB        19.6360  -59.2420   44.6450 C.3   207  ASN207      0.1155
     93  CG        19.5230  -59.9720   45.9660 C.2   207  ASN207      0.2627
     94  OD1       19.4610  -61.2000   45.9950 O.2   207  ASN207     -0.2716
     95  ND2       19.5070  -59.2260   47.0700 N.am  207  ASN207     -0.0877
     96  N         23.7740  -54.7340   44.1490 N.3   211  SER211     -0.1217
     97  CA        25.0000  -55.3920   43.7490 C.3   211  SER211      0.1889
     98  C         25.5190  -54.8870   42.4210 C.2   211  SER211      0.2288
     99  O         26.6320  -55.2340   42.0130 O.2   211  SER211     -0.2866
    100  CB        24.7750  -56.8980   43.6710 C.3   211  SER211      0.2089
    101  OG        23.6220  -57.1890   42.9080 O.3   211  SER211     -0.2183
    102  N         29.2400  -53.3770   42.5260 N.3   214  LYS214     -0.1245
    103  CA        30.3060  -54.3420   42.6880 C.3   214  LYS214      0.1561
    104  C         30.4720  -55.1470   41.4100 C.2   214  LYS214      0.2260
    105  O         31.5920  -55.3720   40.9490 O.2   214  LYS214     -0.2867
    106  CB        30.0300  -55.2620   43.8830 C.3   214  LYS214      0.0271
    107  CG        28.7670  -56.1070   43.7880 C.3   214  LYS214      0.0035
    108  CD        29.0560  -57.5110   43.2620 C.3   214  LYS214      0.0206
    109  CE        27.8180  -58.4010   43.3640 C.3   214  LYS214      0.1093
    110  NZ        28.0540  -59.7940   42.8860 N.3   214  LYS214     -0.1314
    111  N         18.8580  -56.1320   54.2610 N.3   285  TRP285     -0.1241
    112  CA        20.1590  -56.7730   54.1290 C.3   285  TRP285      0.1605
    113  C         20.9490  -56.2110   52.9600 C.2   285  TRP285      0.2264
    114  O         22.1280  -55.9140   53.0920 O.2   285  TRP285     -0.2867
    115  CB        20.0120  -58.2830   53.9080 C.3   285  TRP285      0.0550
    116  CG        21.3320  -58.9850   53.6860 C.ar  285  TRP285      0.0003
    117  CD1       22.2990  -59.2350   54.6220 C.ar  285  TRP285      0.0946
    118  CD2       21.8380  -59.4970   52.4450 C.ar  285  TRP285      0.0152
    119  NE1       23.3720  -59.8710   54.0400 N.ar  285  TRP285     -0.2442
    120  CE2       23.1150  -60.0440   52.7070 C.ar  285  TRP285      0.0810
    121  CE3       21.3360  -59.5430   51.1370 C.ar  285  TRP285      0.0012
    122  CZ2       23.8970  -60.6320   51.7090 C.ar  285  TRP285      0.0191
    123  CZ3       22.1120  -60.1260   50.1410 C.ar  285  TRP285      0.0001
    124  CH2       23.3820  -60.6650   50.4350 C.ar  285  TRP285      0.0015
    125  N         28.9810  -57.2470   51.5260 N.3   291  ARG291     -0.1231
    126  CA        29.1600  -58.1680   50.4150 C.3   291  ARG291      0.1694
    127  C         29.1110  -57.3960   49.0950 C.2   291  ARG291      0.2592
    128  O         29.7310  -57.7890   48.0940 O.2   291  ARG291     -0.2718
    129  CB        28.0560  -59.2210   50.4540 C.3   291  ARG291      0.0321
    130  CG        28.3620  -60.4830   49.6850 C.3   291  ARG291      0.0489
    131  CD        28.0560  -61.7170   50.5470 C.3   291  ARG291      0.2205
    132  NE        28.4470  -62.9670   49.9000 N.pl3 291  ARG291     -0.0865
    133  CZ        27.8900  -63.4370   48.7880 C.cat 291  ARG291      0.5346
    134  NH1       26.9100  -62.7680   48.1880 N.pl3 291  ARG291      0.1354
    135  NH2       28.3140  -64.5750   48.2740 N.pl3 291  ARG291      0.1354
    136  N         28.3720  -56.2890   49.1130 N.am  292  TYR292     -0.1976
    137  CA        28.2150  -55.4320   47.9460 C.3   292  TYR292      0.1639
    138  C         29.1410  -54.2170   47.9880 C.2   292  TYR292      0.2290
    139  O         28.9350  -53.2610   47.2410 O.2   292  TYR292     -0.2864
    140  CB        26.7650  -54.9410   47.8470 C.3   292  TYR292      0.0560
    141  CG        25.7450  -56.0370   47.6570 C.ar  292  TYR292     -0.0198
    142  CD1       26.0820  -57.2230   47.0110 C.ar  292  TYR292     -0.0009
    143  CD2       24.4290  -55.8670   48.0730 C.ar  292  TYR292     -0.0009
    144  CE1       25.1420  -58.2110   46.7840 C.ar  292  TYR292      0.0417
    145  CE2       23.4700  -56.8500   47.8420 C.ar  292  TYR292      0.0417
    146  CZ        23.8360  -58.0220   47.1920 C.ar  292  TYR292      0.1957
    147  OH        22.8900  -58.9930   46.9150 O.3   292  TYR292     -0.2866
@<TRIPOS>BOND
     1   105   104    2
     2   104   103    1
     3    99    98    2
     4    98    97    1
     5   102   103    1
     6   103   106    1
     7   110   109    1
     8   101   100    1
     9    51    50    2
    10   108   109    1
    11   108   107    1
    12    48    49    1
    13    50    49    1
    14    59    60    1
    15    90    91    2
    16    90    89    1
    17   100    97    1
    18    49    52    1
    19    97    96    1
    20   107   106    1
    21    68    67    1
    22    68    69    1
    23    71    70    1
    24    92    89    1
    25    92    93    1
    26    89    88    1
    27    67    64    1
    28    60    61    1
    29    54    56   ar
    30    54    53   ar
    31    52    53    1
    32    63    61   am
    33    63    64    1
    34    70    69    1
    35    56    58   ar
    36    53    55   ar
    37    46    45   ar
    38    61    62    2
    39    64    65    1
    40    43    42    2
    41    93    94    2
    42    93    95   am
    43    65    66    2
    44    58    57   ar
    45    55    57   ar
    46    47    45   ar
    47    45    44    1
    48   144   142   ar
    49   144   146   ar
    50    72    73    1
    51   147   146    1
    52    42    41    1
    53   142   141   ar
    54   146   145   ar
    55   139   138    2
    56    41    44    1
    57    41    40    1
    58   141   140    1
    59   141   143   ar
    60    76    73    1
    61    76    77    1
    62   145   143   ar
    63   140   137    1
    64   137   138    1
    65   137   136    1
    66    73    74    1
    67   128   127    2
    68   134   133    1
    69   135   133    1
    70    79    77    1
    71   133   132    2
    72    77    78    1
    73   127   136   am
    74   127   126    1
    75    80    74   am
    76    80    81    1
    77    74    75    2
    78    24    23    2
    79    86    85    1
    80   130   129    1
    81   130   131    1
    82    85    84    1
    83    85    87    1
    84    28    26    1
    85   132   131    1
    86    84    81    1
    87   123   124   ar
    88   123   121   ar
    89    27    26    1
    90   126   129    1
    91   126   125    1
    92   124   122   ar
    93    81    82    1
    94    32    31    2
    95    23    22    1
    96    23    29   am
    97    25    26    1
    98    25    22    1
    99    38    36   ar
   100    38    39   ar
   101    82    83    2
   102    22    21    1
   103    36    34   ar
   104   121   118   ar
   105    12    11    1
   106    31    30    1
   107    30    29    1
   108    30    33    1
   109    39    37   ar
   110   122   120   ar
   111     9    11   ar
   112     9     7   ar
   113    34    33    1
   114    34    35   ar
   115    11    10   ar
   116   118   120   ar
   117   118   116   ar
   118    37    35   ar
   119   120   119   ar
   120   113   114    2
   121   113   112    1
   122     7     6   ar
   123    20    18    1
   124    10     8   ar
   125   116   115    1
   126   116   117   ar
   127    16    15    2
   128   115   112    1
   129   119   117   ar
   130   112   111    1
   131     6     8   ar
   132     6     5    1
   133    14    15    1
   134    14    17    1
   135    14    13    1
   136    19    18    1
   137    18    17    1
   138     5     2    1
   139     2     3    1
   140     2     1    1
   141     4     3    2
