@<TRIPOS>MOLECULE
tmp/2e4uB00.pdb
 103 97 0 0 0
SMALL
GASTEIGER

@<TRIPOS>ATOM
      1  N         30.4170    6.7670    3.2240 N.3    37  ARG37      -0.1245
      2  CA        29.8920    6.8740    4.5730 C.3    37  ARG37       0.1563
      3  C         30.9480    6.5890    5.6370 C.2    37  ARG37       0.2260
      4  O         30.6650    6.6550    6.8280 O.2    37  ARG37      -0.2867
      5  CB        28.6960    5.9330    4.7340 C.3    37  ARG37       0.0307
      6  CG        27.5260    6.3440    3.8460 C.3    37  ARG37       0.0489
      7  CD        26.2610    5.5870    4.1960 C.3    37  ARG37       0.2205
      8  NE        25.0790    6.0990    3.5060 N.pl3  37  ARG37      -0.0865
      9  CZ        23.8790    5.5400    3.6050 C.cat  37  ARG37       0.5346
     10  NH1       23.7260    4.4600    4.3670 N.pl3  37  ARG37       0.1354
     11  NH2       22.8400    6.0450    2.9470 N.pl3  37  ARG37       0.1354
     12  N         32.9000   10.8510    5.9230 N.3    41  ARG41      -0.1245
     13  CA        32.3420   11.3360    7.1760 C.3    41  ARG41       0.1563
     14  C         33.4350   11.5720    8.2030 C.2    41  ARG41       0.2260
     15  O         33.3600   12.5000    9.0130 O.2    41  ARG41      -0.2867
     16  CB        31.3000   10.3520    7.6880 C.3    41  ARG41       0.0307
     17  CG        30.0720   10.3210    6.7930 C.3    41  ARG41       0.0489
     18  CD        29.0290    9.3780    7.3140 C.3    41  ARG41       0.2205
     19  NE        27.8230    9.3970    6.5020 N.pl3  41  ARG41      -0.0865
     20  CZ        26.8100    8.5610    6.6730 C.cat  41  ARG41       0.5346
     21  NH1       26.8690    7.6410    7.6280 N.pl3  41  ARG41       0.1354
     22  NH2       25.7400    8.6450    5.9000 N.pl3  41  ARG41       0.1354
     23  N         26.8570    5.6700   13.1280 N.3   102  SER102     -0.1202
     24  CA        26.1380    5.9180   11.8960 C.3   102  SER102      0.2020
     25  C         24.9620    4.9570   12.0600 C.2   102  SER102      0.2619
     26  O         23.8050    5.3860   12.1770 O.2   102  SER102     -0.2717
     27  CB        26.9760    5.5580   10.6800 C.3   102  SER102      0.2103
     28  OG        27.9350    6.5730   10.4150 O.3   102  SER102     -0.2182
     29  N         25.2680    3.6610   12.1310 N.am  103  TYR103     -0.1961
     30  CA        24.2350    2.6500   12.3110 C.3   103  TYR103      0.1771
     31  C         23.5570    2.8010   13.6670 C.2   103  TYR103      0.2620
     32  O         24.2190    2.9110   14.6970 O.2   103  TYR103     -0.2715
     33  CB        24.8360    1.2380   12.1910 C.3   103  TYR103      0.0574
     34  CG        25.2450    0.8280   10.7790 C.ar  103  TYR103     -0.0198
     35  CD1       26.5680    0.9530   10.3470 C.ar  103  TYR103     -0.0009
     36  CD2       24.3010    0.3310    9.8710 C.ar  103  TYR103     -0.0009
     37  CE1       26.9460    0.5970    9.0460 C.ar  103  TYR103      0.0417
     38  CE2       24.6620   -0.0290    8.5540 C.ar  103  TYR103      0.0417
     39  CZ        25.9910    0.1090    8.1500 C.ar  103  TYR103      0.1957
     40  OH        26.3640   -0.2250    6.8560 O.3   103  TYR103     -0.2866
     41  N         22.2320    2.7960   13.6810 N.am  104  SER104     -0.1950
     42  CA        21.5070    2.9270   14.9470 C.3   104  SER104      0.1924
     43  C         21.9500    1.8960   15.9960 C.2   104  SER104      0.2314
     44  O         22.0310    2.2040   17.1900 O.2   104  SER104     -0.2863
     45  CB        19.9960    2.7930   14.7150 C.3   104  SER104      0.2116
     46  OG        19.4780    3.9340   14.0570 O.3   104  SER104     -0.2180
     47  N         23.7090   10.3750   11.9580 N.3   125  ALA125     -0.1231
     48  CA        22.9960    9.5240   10.9960 C.3   125  ALA125      0.1694
     49  C         22.0420    8.4940   11.5800 C.2   125  ALA125      0.2593
     50  O         21.1930    7.9670   10.8610 O.2   125  ALA125     -0.2718
     51  CB        24.0020    8.8100   10.0790 C.3   125  ALA125      0.0304
     52  N         22.1790    8.1790   12.8650 N.am  126  SER126     -0.1938
     53  CA        21.3120    7.1690   13.4680 C.3   126  SER126      0.2055
     54  C         19.8880    7.6650   13.5820 C.2   126  SER126      0.2643
     55  O         19.5980    8.5710   14.3610 O.2   126  SER126     -0.2714
     56  CB        21.8410    6.7540   14.8510 C.3   126  SER126      0.2130
     57  OG        23.0910    6.1060   14.7210 O.3   126  SER126     -0.2179
     58  N         18.9930    7.0460   12.8280 N.am  127  THR127     -0.1950
     59  CA        17.5970    7.4600   12.8180 C.3   127  THR127      0.1897
     60  C         16.5650    6.6090   13.5710 C.2   127  THR127      0.2313
     61  O         15.3740    6.9000   13.5010 O.2   127  THR127     -0.2863
     62  CB        17.1200    7.5920   11.3920 C.3   127  THR127      0.1794
     63  OG1       17.3100    6.3400   10.7200 O.3   127  THR127     -0.2208
     64  CG2       17.9180    8.6810   10.6780 C.3   127  THR127      0.0378
     65  N         17.5150   -0.6080   13.6190 N.3   175  TYR175     -0.1241
     66  CA        17.2010    0.2490   12.4890 C.3   175  TYR175      0.1605
     67  C         16.0930   -0.3740   11.6500 C.2   175  TYR175      0.2264
     68  O         15.0160    0.2070   11.4870 O.2   175  TYR175     -0.2867
     69  CB        18.4220    0.4550   11.6000 C.3   175  TYR175      0.0534
     70  CG        18.0900    1.1930   10.3200 C.ar  175  TYR175     -0.0201
     71  CD1       17.7920    2.5530   10.3390 C.ar  175  TYR175     -0.0009
     72  CD2       18.0280    0.5210    9.0970 C.ar  175  TYR175     -0.0009
     73  CE1       17.4440    3.2290    9.1810 C.ar  175  TYR175      0.0417
     74  CE2       17.6750    1.1910    7.9200 C.ar  175  TYR175      0.0417
     75  CZ        17.3860    2.5460    7.9760 C.ar  175  TYR175      0.1957
     76  OH        17.0380    3.2230    6.8390 O.3   175  TYR175     -0.2866
     77  N         22.8090   -0.2850    4.9700 N.3   231  SER231     -0.1217
     78  CA        23.5140   -0.1540    3.7080 C.3   231  SER231      0.1889
     79  C         24.0580   -1.5000    3.2500 C.2   231  SER231      0.2288
     80  O         23.6890   -2.0000    2.1890 O.2   231  SER231     -0.2866
     81  CB        24.6700    0.8270    3.8530 C.3   231  SER231      0.2089
     82  OG        25.3120    1.0330    2.6070 O.3   231  SER231     -0.2183
     83  N         16.5590    5.4620    3.9470 N.3   254  ASP254     -0.1225
     84  CA        17.8800    6.0850    3.8710 C.3   254  ASP254      0.1805
     85  C         19.0700    5.1540    3.9740 C.2   254  ASP254      0.2598
     86  O         20.1660    5.5070    3.5250 O.2   254  ASP254     -0.2718
     87  CB        18.0160    7.2020    4.9180 C.3   254  ASP254      0.1424
     88  CG        18.2920    6.6730    6.3020 C.2   254  ASP254      0.3668
     89  OD1       17.3780    6.0910    6.9220 O.co2 254  ASP254     -0.2456
     90  OD2       19.4350    6.8380    6.7660 O.co2 254  ASP254     -0.2456
     91  N         18.8770    3.9790    4.5700 N.am  255  GLY255     -0.1957
     92  CA        19.9800    3.0390    4.6800 C.3   255  GLY255      0.1869
     93  C         20.5460    2.8060    3.2920 C.2   255  GLY255      0.2309
     94  O         21.7610    2.6820    3.0880 O.2   255  GLY255     -0.2863
     95  N         24.9470   12.7690    3.8040 N.3   336  LYS336     -0.1245
     96  CA        24.8060   13.2630    5.1740 C.3   336  LYS336      0.1561
     97  C         25.9560   14.0860    5.7660 C.2   336  LYS336      0.2260
     98  O         25.9500   14.4050    6.9580 O.2   336  LYS336     -0.2867
     99  CB        24.5030   12.0850    6.1070 C.3   336  LYS336      0.0271
    100  CG        23.2170   11.3240    5.7740 C.3   336  LYS336      0.0035
    101  CD        22.9160   10.3160    6.8770 C.3   336  LYS336      0.0206
    102  CE        21.5540    9.6920    6.7500 C.3   336  LYS336      0.1093
    103  NZ        21.5950    8.5110    5.8410 N.3   336  LYS336     -0.1314
@<TRIPOS>BOND
     1    80    79    2
     2    82    81    1
     3    11     9    1
     4    94    93    2
     5     1     2    1
     6    79    78    1
     7    93    92    1
     8     8     9    2
     9     8     7    1
    10    86    85    2
    11     9    10    1
    12    78    81    1
    13    78    77    1
    14    95    96    1
    15     6     7    1
    16     6     5    1
    17    84    83    1
    18    84    85    1
    19    84    87    1
    20    85    91   am
    21    91    92    1
    22     2     5    1
    23     2     3    1
    24    87    88    1
    25    96    97    1
    26    96    99    1
    27     3     4    2
    28    97    98    2
    29   100    99    1
    30   100   101    1
    31   103   102    1
    32    22    20    1
    33    12    13    1
    34    88    90   ar
    35    88    89   ar
    36    19    20    2
    37    19    18    1
    38    20    21    1
    39   102   101    1
    40    17    18    1
    41    17    16    1
    42    76    75    1
    43    40    39    1
    44    13    16    1
    45    13    14    1
    46    74    75   ar
    47    74    72   ar
    48    75    73   ar
    49    39    38   ar
    50    39    37   ar
    51    14    15    2
    52    38    36   ar
    53    37    35   ar
    54    72    70   ar
    55    73    71   ar
    56    36    34   ar
    57    51    48    1
    58    70    71   ar
    59    70    69    1
    60    35    34   ar
    61    28    27    1
    62    64    62    1
    63    27    24    1
    64    63    62    1
    65    34    33    1
    66    50    49    2
    67    48    49    1
    68    48    47    1
    69    62    59    1
    70    68    67    2
    71    49    52   am
    72    69    66    1
    73    67    66    1
    74    24    25    1
    75    24    23    1
    76    25    29   am
    77    25    26    2
    78    29    30    1
    79    33    30    1
    80    30    31    1
    81    66    65    1
    82    59    58    1
    83    59    60    1
    84    58    54   am
    85    52    53    1
    86    53    54    1
    87    53    56    1
    88    61    60    2
    89    54    55    2
    90    31    41   am
    91    31    32    2
    92    41    42    1
    93    46    45    1
    94    45    42    1
    95    57    56    1
    96    42    43    1
    97    43    44    2
