@<TRIPOS>MOLECULE
tmp/2e4vA00.pdb
 114 108 0 0 0
SMALL
GASTEIGER

@<TRIPOS>ATOM
      1  N         29.9000   -7.9600   56.3000 N.3    35  ARG35      -0.1245
      2  CA        29.3290   -7.9390   54.9700 C.3    35  ARG35       0.1563
      3  C         30.3570   -7.7780   53.8640 C.2    35  ARG35       0.2260
      4  O         30.0560   -7.9850   52.6940 O.2    35  ARG35      -0.2867
      5  CB        28.2530   -6.8630   54.8840 C.3    35  ARG35       0.0307
      6  CG        27.0680   -7.1660   55.7770 C.3    35  ARG35       0.0489
      7  CD        25.8840   -6.2830   55.4870 C.3    35  ARG35       0.2205
      8  NE        24.6670   -6.7800   56.1270 N.pl3  35  ARG35      -0.0865
      9  CZ        23.5200   -6.1110   56.1540 C.cat  35  ARG35       0.5346
     10  NH1       23.4400   -4.9160   55.5740 N.pl3  35  ARG35       0.1354
     11  NH2       22.4590   -6.6310   56.7630 N.pl3  35  ARG35       0.1354
     12  N         31.7860  -12.1920   53.4530 N.3    39  ARG39      -0.1245
     13  CA        31.1520  -12.5170   52.1840 C.3    39  ARG39       0.1563
     14  C         32.1890  -12.7900   51.0960 C.2    39  ARG39       0.2260
     15  O         32.0230  -13.7130   50.2930 O.2    39  ARG39      -0.2867
     16  CB        30.2020  -11.3920   51.7690 C.3    39  ARG39       0.0307
     17  CG        28.9910  -11.2210   52.7080 C.3    39  ARG39       0.0489
     18  CD        27.9770  -10.2430   52.1260 C.3    39  ARG39       0.2205
     19  NE        26.7980  -10.0710   52.9730 N.pl3  39  ARG39      -0.0865
     20  CZ        25.8900   -9.1110   52.8040 C.cat  39  ARG39       0.5346
     21  NH1       26.0330   -8.2350   51.8170 N.pl3  39  ARG39       0.1354
     22  NH2       24.8410   -9.0270   53.6180 N.pl3  39  ARG39       0.1354
     23  N         26.3220   -5.7930   46.6470 N.3   100  SER100     -0.1202
     24  CA        25.5950   -6.0240   47.8870 C.3   100  SER100      0.2020
     25  C         24.5250   -4.9320   47.8070 C.2   100  SER100      0.2619
     26  O         23.3240   -5.2300   47.7810 O.2   100  SER100     -0.2717
     27  CB        26.4790   -5.8250   49.1150 C.3   100  SER100      0.2103
     28  OG        27.2580   -6.9820   49.3730 O.3   100  SER100     -0.2182
     29  N         24.9580   -3.6750   47.7150 N.am  101  TYR101     -0.1961
     30  CA        24.0160   -2.5630   47.6060 C.3   101  TYR101      0.1771
     31  C         23.3000   -2.5620   46.2510 C.2   101  TYR101      0.2620
     32  O         23.9180   -2.7270   45.1840 O.2   101  TYR101     -0.2715
     33  CB        24.7320   -1.2130   47.8130 C.3   101  TYR101      0.0574
     34  CG        25.2210   -0.9890   49.2350 C.ar  101  TYR101     -0.0198
     35  CD1       26.5170   -1.3520   49.6190 C.ar  101  TYR101     -0.0009
     36  CD2       24.3580   -0.5020   50.2130 C.ar  101  TYR101     -0.0009
     37  CE1       26.9290   -1.2440   50.9420 C.ar  101  TYR101      0.0417
     38  CE2       24.7580   -0.3860   51.5270 C.ar  101  TYR101      0.0417
     39  CZ        26.0390   -0.7610   51.8910 C.ar  101  TYR101      0.1957
     40  OH        26.4160   -0.6700   53.2120 O.3   101  TYR101     -0.2866
     41  N         21.9900   -2.3780   46.2850 N.am  102  SER102     -0.1950
     42  CA        21.2310   -2.3610   45.0470 C.3   102  SER102      0.1924
     43  C         21.7450   -1.3370   44.0520 C.2   102  SER102      0.2314
     44  O         21.7400   -1.5850   42.8470 O.2   102  SER102     -0.2863
     45  CB        19.7560   -2.0750   45.3130 C.3   102  SER102      0.2116
     46  OG        19.1700   -3.1930   45.9290 O.3   102  SER102     -0.2180
     47  N         22.6360  -10.2340   47.5650 N.3   123  ALA123     -0.1231
     48  CA        22.0840   -9.3930   48.6000 C.3   123  ALA123      0.1694
     49  C         21.3110   -8.1870   48.1070 C.2   123  ALA123      0.2593
     50  O         20.6040   -7.5750   48.8940 O.2   123  ALA123     -0.2718
     51  CB        23.2020   -8.9430   49.5280 C.3   123  ALA123      0.0304
     52  N         21.4350   -7.8300   46.8300 N.am  124  SER124     -0.1938
     53  CA        20.7070   -6.6600   46.3100 C.3   124  SER124      0.2055
     54  C         19.2100   -6.9780   46.1940 C.2   124  SER124      0.2643
     55  O         18.7950   -7.7780   45.3450 O.2   124  SER124     -0.2714
     56  CB        21.2760   -6.2480   44.9460 C.3   124  SER124      0.2130
     57  OG        22.6280   -5.8270   45.0640 O.3   124  SER124     -0.2179
     58  N         18.4010   -6.3320   47.0300 N.am  125  THR125     -0.1950
     59  CA        16.9560   -6.5910   47.0660 C.3   125  THR125      0.1897
     60  C         15.9830   -5.6360   46.3440 C.2   125  THR125      0.2313
     61  O         14.7820   -5.8860   46.3290 O.2   125  THR125     -0.2863
     62  CB        16.4800   -6.6810   48.5250 C.3   125  THR125      0.1794
     63  OG1       16.8160   -5.4610   49.2060 O.3   125  THR125     -0.2208
     64  CG2       17.1410   -7.8540   49.2390 C.3   125  THR125      0.0378
     65  N         17.9660    1.5220   46.7810 N.3   173  TYR173     -0.1241
     66  CA        17.5450    0.6000   47.8250 C.3   173  TYR173      0.1605
     67  C         16.4920    1.2330   48.7260 C.2   173  TYR173      0.2264
     68  O         15.3700    0.7380   48.8240 O.2   173  TYR173     -0.2867
     69  CB        18.7190    0.1540   48.6940 C.3   173  TYR173      0.0534
     70  CG        18.2810   -0.6910   49.8860 C.ar  173  TYR173     -0.0201
     71  CD1       17.7550   -1.9770   49.7020 C.ar  173  TYR173     -0.0009
     72  CD2       18.3900   -0.2060   51.1910 C.ar  173  TYR173     -0.0009
     73  CE1       17.3540   -2.7540   50.7840 C.ar  173  TYR173      0.0417
     74  CE2       17.9920   -0.9770   52.2830 C.ar  173  TYR173      0.0417
     75  CZ        17.4740   -2.2470   52.0730 C.ar  173  TYR173      0.1957
     76  OH        17.0660   -3.0060   53.1480 O.3   173  TYR173     -0.2866
     77  N         20.2280    1.8690   54.0600 N.3   228  ARG228     -0.1231
     78  CA        21.4560    1.1410   53.8140 C.3   228  ARG228      0.1694
     79  C         22.0640    0.8390   55.1820 C.2   228  ARG228      0.2592
     80  O         21.7410    1.4920   56.1790 O.2   228  ARG228     -0.2718
     81  CB        22.4350    2.0100   53.0230 C.3   228  ARG228      0.0321
     82  CG        22.0790    2.2210   51.5590 C.3   228  ARG228      0.0489
     83  CD        22.9730    3.2840   50.9330 C.3   228  ARG228      0.2205
     84  NE        24.3940    3.0120   51.1420 N.pl3 228  ARG228     -0.0865
     85  CZ        25.2490    2.6840   50.1770 C.cat 228  ARG228      0.5346
     86  NH1       24.8430    2.5780   48.9170 N.pl3 228  ARG228      0.1354
     87  NH2       26.5170    2.4720   50.4690 N.pl3 228  ARG228      0.1354
     88  N         22.9470   -0.1500   55.2140 N.am  229  SER229     -0.1952
     89  CA        23.6230   -0.5450   56.4380 C.3   229  SER229      0.1924
     90  C         24.3750    0.6460   57.0230 C.2   229  SER229      0.2314
     91  O         24.1970    0.9920   58.1990 O.2   229  SER229     -0.2863
     92  CB        24.6040   -1.6780   56.1370 C.3   229  SER229      0.2116
     93  OG        25.3780   -2.0130   57.2680 O.3   229  SER229     -0.2180
     94  N         16.2340   -5.2150   56.0490 N.3   252  ASP252     -0.1225
     95  CA        17.4880   -5.9750   56.0570 C.3   252  ASP252      0.1805
     96  C         18.7490   -5.1160   55.9800 C.2   252  ASP252      0.2598
     97  O         19.8420   -5.5700   56.3330 O.2   252  ASP252     -0.2718
     98  CB        17.5040   -6.9830   54.9140 C.3   252  ASP252      0.1424
     99  CG        17.8670   -6.3520   53.6000 C.2   252  ASP252      0.3668
    100  OD1       17.0770   -5.5300   53.0900 O.co2 252  ASP252     -0.2456
    101  OD2       18.9580   -6.6760   53.0800 O.co2 252  ASP252     -0.2456
    102  N         18.6070   -3.8850   55.5070 N.am  253  GLY253     -0.1957
    103  CA        19.7640   -3.0060   55.4270 C.3   253  GLY253      0.1869
    104  C         20.4170   -3.0090   56.7900 C.2   253  GLY253      0.2309
    105  O         21.6340   -3.1590   56.9180 O.2   253  GLY253     -0.2863
    106  N         23.7070  -13.2380   55.4360 N.3   340  LYS340     -0.1245
    107  CA        23.5400  -13.5890   54.0300 C.3   340  LYS340      0.1561
    108  C         24.5830  -14.4950   53.3800 C.2   340  LYS340      0.2260
    109  O         24.5540  -14.7060   52.1600 O.2   340  LYS340     -0.2867
    110  CB        23.3780  -12.3090   53.2030 C.3   340  LYS340      0.0271
    111  CG        22.0970  -11.5090   53.5110 C.3   340  LYS340      0.0035
    112  CD        21.8450  -10.4480   52.4480 C.3   340  LYS340      0.0206
    113  CE        20.5690   -9.6470   52.6990 C.3   340  LYS340      0.1093
    114  NZ        20.7240   -8.6000   53.7470 N.3   340  LYS340     -0.1314
@<TRIPOS>BOND
     1    44    43    2
     2    43    42    1
     3    56    57    1
     4    56    53    1
     5    42    45    1
     6    42    41    1
     7    32    31    2
     8    45    46    1
     9    55    54    2
    10    54    53    1
    11    54    58   am
    12    31    41   am
    13    31    30    1
    14    53    52    1
    15    61    60    2
    16    60    59    1
    17    23    24    1
    18    65    66    1
    19    52    49   am
    20    58    59    1
    21    59    62    1
    22    47    48    1
    23    30    29    1
    24    30    33    1
    25    29    25   am
    26    26    25    2
    27    25    24    1
    28    33    34    1
    29    66    69    1
    30    66    67    1
    31    24    27    1
    32    49    48    1
    33    49    50    2
    34    62    63    1
    35    62    64    1
    36    48    51    1
    37    69    70    1
    38    67    68    2
    39    86    85    1
    40    27    28    1
    41    34    35   ar
    42    34    36   ar
    43    35    37   ar
    44    71    70   ar
    45    71    73   ar
    46    70    72   ar
    47    85    87    1
    48    85    84    2
    49    36    38   ar
    50    15    14    2
    51    73    75   ar
    52    83    84    1
    53    83    82    1
    54    37    39   ar
    55    14    13    1
    56    72    74   ar
    57    38    39   ar
    58    82    81    1
    59    16    13    1
    60    16    17    1
    61    21    20    1
    62    39    40    1
    63    75    74   ar
    64    75    76    1
    65    18    17    1
    66    18    19    1
    67   109   108    2
    68    13    12    1
    69   112   113    1
    70   112   111    1
    71     4     3    2
    72   113   114    1
    73    20    19    2
    74    20    22    1
    75    81    78    1
    76   101    99   ar
    77   100    99   ar
    78   110   111    1
    79   110   107    1
    80   108   107    1
    81    99    98    1
    82    78    77    1
    83    78    79    1
    84     3     2    1
    85   107   106    1
    86     5     2    1
    87     5     6    1
    88    98    95    1
    89     2     1    1
    90    79    88   am
    91    79    80    2
    92    88    89    1
    93   103   102    1
    94   103   104    1
    95     7     6    1
    96     7     8    1
    97   102    96   am
    98    10     9    1
    99    96    95    1
   100    96    97    2
   101    94    95    1
   102     8     9    2
   103    92    89    1
   104    92    93    1
   105     9    11    1
   106    89    90    1
   107   104   105    2
   108    90    91    2
