@<TRIPOS>MOLECULE
tmp/2e4wB01.pdb
 114 108 0 0 0
SMALL
GASTEIGER

@<TRIPOS>ATOM
      1  N         30.3390    6.7400    3.1950 N.3    37  ARG37      -0.1245
      2  CA        29.8200    6.8310    4.5430 C.3    37  ARG37       0.1563
      3  C         30.8900    6.5810    5.5980 C.2    37  ARG37       0.2260
      4  O         30.6230    6.6870    6.7860 O.2    37  ARG37      -0.2867
      5  CB        28.6560    5.8560    4.7100 C.3    37  ARG37       0.0307
      6  CG        27.4770    6.2100    3.8070 C.3    37  ARG37       0.0489
      7  CD        26.2270    5.4360    4.1850 C.3    37  ARG37       0.2205
      8  NE        25.0310    5.9430    3.5250 N.pl3  37  ARG37      -0.0865
      9  CZ        23.8470    5.3480    3.5990 C.cat  37  ARG37       0.5346
     10  NH1       23.7260    4.2290    4.3080 N.pl3  37  ARG37       0.1354
     11  NH2       22.7870    5.8610    2.9720 N.pl3  37  ARG37       0.1354
     12  N         32.8800   10.8630    5.8590 N.3    41  ARG41      -0.1245
     13  CA        32.3380   11.3490    7.1210 C.3    41  ARG41       0.1563
     14  C         33.4390   11.5770    8.1530 C.2    41  ARG41       0.2260
     15  O         33.3630   12.4930    8.9750 O.2    41  ARG41      -0.2867
     16  CB        31.2810   10.3830    7.6350 C.3    41  ARG41       0.0307
     17  CG        30.0290   10.3940    6.7750 C.3    41  ARG41       0.0489
     18  CD        28.9730    9.4400    7.2970 C.3    41  ARG41       0.2205
     19  NE        27.8180    9.3730    6.4120 N.pl3  41  ARG41      -0.0865
     20  CZ        26.7950    8.5460    6.5860 C.cat  41  ARG41       0.5346
     21  NH1       26.7760    7.7090    7.6160 N.pl3  41  ARG41       0.1354
     22  NH2       25.7920    8.5530    5.7280 N.pl3  41  ARG41       0.1354
     23  N         26.8280    5.6810   13.1430 N.3   102  SER102     -0.1202
     24  CA        26.1580    5.9050   11.8690 C.3   102  SER102      0.2020
     25  C         24.9890    4.9400   12.0340 C.2   102  SER102      0.2619
     26  O         23.8350    5.3550   12.2090 O.2   102  SER102     -0.2717
     27  CB        27.0370    5.5060   10.6960 C.3   102  SER102      0.2103
     28  OG        27.9130    6.5710   10.3420 O.3   102  SER102     -0.2182
     29  N         25.3030    3.6480   12.0400 N.am  103  TYR103     -0.1961
     30  CA        24.2880    2.6230   12.2270 C.3   103  TYR103      0.1771
     31  C         23.6010    2.8160   13.5680 C.2   103  TYR103      0.2620
     32  O         24.2600    2.9710   14.5980 O.2   103  TYR103     -0.2715
     33  CB        24.9210    1.2220   12.1940 C.3   103  TYR103      0.0574
     34  CG        25.3450    0.7400   10.8150 C.ar  103  TYR103     -0.0198
     35  CD1       26.5950    1.0590   10.2880 C.ar  103  TYR103     -0.0009
     36  CD2       24.4680   -0.0090   10.0220 C.ar  103  TYR103     -0.0009
     37  CE1       26.9620    0.6480    9.0010 C.ar  103  TYR103      0.0417
     38  CE2       24.8220   -0.4210    8.7330 C.ar  103  TYR103      0.0417
     39  CZ        26.0680   -0.0890    8.2270 C.ar  103  TYR103      0.1957
     40  OH        26.3920   -0.4650    6.9340 O.3   103  TYR103     -0.2866
     41  N         22.2760    2.7940   13.5720 N.am  104  SER104     -0.1950
     42  CA        21.5480    2.9440   14.8270 C.3   104  SER104      0.1924
     43  C         22.0380    1.9220   15.8720 C.2   104  SER104      0.2314
     44  O         22.1570    2.2410   17.0580 O.2   104  SER104     -0.2863
     45  CB        20.0420    2.7460   14.6060 C.3   104  SER104      0.2116
     46  OG        19.4510    3.8550   13.9540 O.3   104  SER104     -0.2180
     47  N         23.7380   10.4170   11.9450 N.3   125  ALA125     -0.1231
     48  CA        23.0300    9.5720   10.9860 C.3   125  ALA125      0.1694
     49  C         22.0310    8.5760   11.5470 C.2   125  ALA125      0.2593
     50  O         21.1110    8.1890   10.8440 O.2   125  ALA125     -0.2718
     51  CB        24.0320    8.8270   10.0970 C.3   125  ALA125      0.0304
     52  N         22.2060    8.1540   12.7980 N.am  126  SER126     -0.1938
     53  CA        21.3050    7.1680   13.3920 C.3   126  SER126      0.2055
     54  C         19.8720    7.6770   13.5150 C.2   126  SER126      0.2643
     55  O         19.5890    8.6040   14.2780 O.2   126  SER126     -0.2714
     56  CB        21.8380    6.7350   14.7670 C.3   126  SER126      0.2130
     57  OG        23.0970    6.0960   14.6350 O.3   126  SER126     -0.2179
     58  N         18.9630    7.0480   12.7780 N.am  127  THR127     -0.1950
     59  CA        17.5610    7.4580   12.7840 C.3   127  THR127      0.1897
     60  C         16.5620    6.5830   13.5570 C.2   127  THR127      0.2313
     61  O         15.3620    6.8640   13.5330 O.2   127  THR127     -0.2863
     62  CB        17.0370    7.5800   11.3600 C.3   127  THR127      0.1794
     63  OG1       17.1870    6.3170   10.6950 O.3   127  THR127     -0.2208
     64  CG2       17.8060    8.6620   10.6020 C.3   127  THR127      0.0378
     65  N         17.2570   -0.6270   13.6870 N.3   175  TYR175     -0.1241
     66  CA        17.0240    0.2040   12.5170 C.3   175  TYR175      0.1605
     67  C         15.9190   -0.4110   11.6620 C.2   175  TYR175      0.2264
     68  O         14.8260    0.1540   11.5310 O.2   175  TYR175     -0.2867
     69  CB        18.2820    0.3400   11.6630 C.3   175  TYR175      0.0534
     70  CG        18.0220    1.0920   10.3720 C.ar  175  TYR175     -0.0201
     71  CD1       17.7710    2.4650   10.3800 C.ar  175  TYR175     -0.0009
     72  CD2       17.9640    0.4210    9.1500 C.ar  175  TYR175     -0.0009
     73  CE1       17.4610    3.1480    9.2110 C.ar  175  TYR175      0.0417
     74  CE2       17.6560    1.0970    7.9670 C.ar  175  TYR175      0.0417
     75  CZ        17.4020    2.4570    8.0080 C.ar  175  TYR175      0.1957
     76  OH        17.0670    3.1220    6.8540 O.3   175  TYR175     -0.2866
     77  N         19.8740   -2.0790    6.4810 N.3   230  ARG230     -0.1231
     78  CA        21.1960   -1.5000    6.6390 C.3   230  ARG230      0.1694
     79  C         21.7680   -1.3770    5.2430 C.2   230  ARG230      0.2592
     80  O         21.3230   -2.0490    4.3200 O.2   230  ARG230     -0.2718
     81  CB        22.1160   -2.4370    7.4310 C.3   230  ARG230      0.0321
     82  CG        21.7360   -2.7210    8.8850 C.3   230  ARG230      0.0489
     83  CD        22.5500   -3.9200    9.4200 C.3   230  ARG230      0.2205
     84  NE        23.9970   -3.8160    9.1780 N.pl3 230  ARG230     -0.0865
     85  CZ        24.8860   -3.3490   10.0590 C.cat 230  ARG230      0.5346
     86  NH1       24.4930   -2.9290   11.2610 N.pl3 230  ARG230      0.1354
     87  NH2       26.1780   -3.3220    9.7520 N.pl3 230  ARG230      0.1354
     88  N         22.7670   -0.5240    5.0970 N.am  231  SER231     -0.1952
     89  CA        23.4260   -0.3310    3.8230 C.3   231  SER231      0.1924
     90  C         23.9630   -1.6650    3.3070 C.2   231  SER231      0.2314
     91  O         23.6080   -2.1060    2.2160 O.2   231  SER231     -0.2863
     92  CB        24.5760    0.6550    3.9920 C.3   231  SER231      0.2116
     93  OG        25.3270    0.7810    2.8020 O.3   231  SER231     -0.2180
     94  N         16.6300    5.2730    3.9790 N.3   254  ASP254     -0.1225
     95  CA        17.9470    5.8830    3.8790 C.3   254  ASP254      0.1805
     96  C         19.1130    4.9300    4.0250 C.2   254  ASP254      0.2598
     97  O         20.2420    5.2800    3.6640 O.2   254  ASP254     -0.2718
     98  CB        18.0730    7.0540    4.8640 C.3   254  ASP254      0.1424
     99  CG        18.3590    6.6140    6.2860 C.2   254  ASP254      0.3668
    100  OD1       17.5700    5.8430    6.8710 O.co2 254  ASP254     -0.2456
    101  OD2       19.3850    7.0660    6.8230 O.co2 254  ASP254     -0.2456
    102  N         18.8590    3.7310    4.5510 N.am  255  GLY255     -0.1957
    103  CA        19.9380    2.7630    4.6790 C.3   255  GLY255      0.1869
    104  C         20.5150    2.5880    3.2860 C.2   255  GLY255      0.2309
    105  O         21.7320    2.5490    3.0710 O.2   255  GLY255     -0.2863
    106  N         24.9720   12.7230    3.7450 N.3   342  LYS342     -0.1245
    107  CA        24.8450   13.2570    5.0970 C.3   342  LYS342      0.1561
    108  C         26.0070   14.0640    5.6790 C.2   342  LYS342      0.2260
    109  O         26.0210   14.3490    6.8760 O.2   342  LYS342     -0.2867
    110  CB        24.4880   12.1250    6.0690 C.3   342  LYS342      0.0271
    111  CG        23.1540   11.4430    5.7940 C.3   342  LYS342      0.0035
    112  CD        22.8020   10.5200    6.9520 C.3   342  LYS342      0.0206
    113  CE        21.5540    9.7130    6.6950 C.3   342  LYS342      0.1093
    114  NZ        21.8870    8.5540    5.8260 N.3   342  LYS342     -0.1314
@<TRIPOS>BOND
     1    91    90    2
     2    93    92    1
     3    11     9    1
     4   105   104    2
     5     1     2    1
     6   104   103    1
     7    90    89    1
     8     8     9    2
     9     8     7    1
    10     9    10    1
    11    97    96    2
    12   106   107    1
    13     6     7    1
    14     6     5    1
    15    89    92    1
    16    89    88    1
    17    95    94    1
    18    95    96    1
    19    95    98    1
    20    96   102   am
    21    80    79    2
    22     2     5    1
    23     2     3    1
    24   102   103    1
    25    98    99    1
    26   107   108    1
    27   107   110    1
    28    88    79   am
    29    79    78    1
    30     3     4    2
    31   108   109    2
    32    22    20    1
    33   111   110    1
    34   111   112    1
    35   114   113    1
    36    12    13    1
    37    99   101   ar
    38    99   100   ar
    39    19    20    2
    40    19    18    1
    41    77    78    1
    42    20    21    1
    43    78    81    1
    44   113   112    1
    45    17    18    1
    46    17    16    1
    47    76    75    1
    48    40    39    1
    49    13    16    1
    50    13    14    1
    51    81    82    1
    52    74    75   ar
    53    74    72   ar
    54    75    73   ar
    55    14    15    2
    56    39    38   ar
    57    39    37   ar
    58    38    36   ar
    59    82    83    1
    60    37    35   ar
    61    72    70   ar
    62    84    83    1
    63    84    85    2
    64    73    71   ar
    65    87    85    1
    66    36    34   ar
    67    85    86    1
    68    51    48    1
    69    35    34   ar
    70    28    27    1
    71    70    71   ar
    72    70    69    1
    73    64    62    1
    74    63    62    1
    75    27    24    1
    76    34    33    1
    77    50    49    2
    78    48    49    1
    79    48    47    1
    80    62    59    1
    81    68    67    2
    82    49    52   am
    83    67    66    1
    84    69    66    1
    85    24    25    1
    86    24    23    1
    87    25    29   am
    88    25    26    2
    89    29    30    1
    90    33    30    1
    91    30    31    1
    92    66    65    1
    93    58    59    1
    94    58    54   am
    95    59    60    1
    96    52    53    1
    97    53    54    1
    98    53    56    1
    99    54    55    2
   100    61    60    2
   101    31    41   am
   102    31    32    2
   103    41    42    1
   104    46    45    1
   105    45    42    1
   106    57    56    1
   107    42    43    1
   108    43    44    2
