@<TRIPOS>MOLECULE
tmp/2e4yB00.pdb
 121 115 0 0 0
SMALL
GASTEIGER

@<TRIPOS>ATOM
      1  N         28.8150   19.7320   12.8530 N.3    17  PRO17      -0.2116
      2  CA        28.8280   18.4990   12.0670 C.3    17  PRO17       0.1372
      3  C         29.7600   18.7160   10.8860 C.2    17  PRO17       0.2244
      4  O         29.3490   18.6520    9.7280 O.2    17  PRO17      -0.2868
      5  CB        27.3850   18.3730   11.6370 C.3    17  PRO17       0.0268
      6  CG        27.0040   19.8040   11.4250 C.3    17  PRO17       0.0207
      7  CD        27.5600   20.4720   12.6450 C.3    17  PRO17       0.0892
      8  N         26.8540   23.0580    5.6880 N.3    35  ARG35      -0.1245
      9  CA        26.3750   23.1200    7.0670 C.3    35  ARG35       0.1563
     10  C         27.4620   22.7950    8.0860 C.2    35  ARG35       0.2260
     11  O         27.2850   23.0030    9.2820 O.2    35  ARG35      -0.2867
     12  CB        25.1790   22.1950    7.2710 C.3    35  ARG35       0.0307
     13  CG        23.8810   22.7850    6.7730 C.3    35  ARG35       0.0489
     14  CD        22.7140   21.8620    7.0400 C.3    35  ARG35       0.2205
     15  NE        21.4980   22.3540    6.4020 N.pl3  35  ARG35      -0.0865
     16  CZ        20.3280   21.7290    6.4430 C.cat  35  ARG35       0.5346
     17  NH1       20.2090   20.5790    7.0960 N.pl3  35  ARG35       0.1354
     18  NH2       19.2790   22.2500    5.8190 N.pl3  35  ARG35       0.1354
     19  N         29.2130   26.9940    8.7280 N.3    39  ARG39      -0.1245
     20  CA        28.7580   27.2740   10.0770 C.3    39  ARG39       0.1563
     21  C         29.9260   27.3630   11.0480 C.2    39  ARG39       0.2260
     22  O         29.9390   28.2250   11.9230 O.2    39  ARG39      -0.2867
     23  CB        27.7810   26.2000   10.5380 C.3    39  ARG39       0.0307
     24  CG        26.4550   26.2670    9.8340 C.3    39  ARG39       0.0489
     25  CD        25.5420   25.1490   10.2710 C.3    39  ARG39       0.2205
     26  NE        24.2590   25.2330    9.5850 N.pl3  39  ARG39      -0.0865
     27  CZ        23.3070   24.3120    9.6660 C.cat  39  ARG39       0.5346
     28  NH1       23.4970   23.2300   10.4060 N.pl3  39  ARG39       0.1354
     29  NH2       22.1630   24.4760    9.0130 N.pl3  39  ARG39       0.1354
     30  N         23.9190   20.9220   15.8830 N.3   100  SER100     -0.1202
     31  CA        23.2530   21.1800   14.6220 C.3   100  SER100      0.2020
     32  C         22.0290   20.2720   14.5910 C.2   100  SER100      0.2619
     33  O         20.8960   20.7470   14.6800 O.2   100  SER100     -0.2717
     34  CB        24.1760   20.8890   13.4520 C.3   100  SER100      0.2103
     35  OG        24.1090   21.9570   12.5190 O.3   100  SER100     -0.2182
     36  N         22.2510   18.9650   14.4870 N.am  101  TYR101     -0.1961
     37  CA        21.1290   18.0270   14.4930 C.3   101  TYR101      0.1771
     38  C         20.5070   17.9780   15.8960 C.2   101  TYR101      0.2620
     39  O         21.2190   17.9360   16.8970 O.2   101  TYR101     -0.2715
     40  CB        21.5970   16.6240   14.1010 C.3   101  TYR101      0.0574
     41  CG        22.1010   16.5200   12.6870 C.ar  101  TYR101     -0.0198
     42  CD1       23.4350   16.2250   12.4240 C.ar  101  TYR101     -0.0009
     43  CD2       21.2460   16.7290   11.6060 C.ar  101  TYR101     -0.0009
     44  CE1       23.9070   16.1410   11.1170 C.ar  101  TYR101      0.0417
     45  CE2       21.7090   16.6510   10.2940 C.ar  101  TYR101      0.0417
     46  CZ        23.0410   16.3570   10.0590 C.ar  101  TYR101      0.1957
     47  OH        23.5220   16.2950    8.7730 O.3   101  TYR101     -0.2866
     48  N         19.1810   17.9900   15.9780 N.am  102  SER102     -0.1950
     49  CA        18.5270   17.9340   17.2800 C.3   102  SER102      0.1924
     50  C         19.0640   16.7330   18.0360 C.2   102  SER102      0.2314
     51  O         19.3930   16.8170   19.2190 O.2   102  SER102     -0.2863
     52  CB        17.0210   17.7890   17.1090 C.3   102  SER102      0.2116
     53  OG        16.4870   18.9250   16.4640 O.3   102  SER102     -0.2180
     54  N         20.5460   25.6400   15.3820 N.3   123  ALA123     -0.1231
     55  CA        19.7850   24.8910   14.4010 C.3   123  ALA123      0.1694
     56  C         18.8890   23.7640   14.9100 C.2   123  ALA123      0.2593
     57  O         17.8750   23.4810   14.2890 O.2   123  ALA123     -0.2718
     58  CB        20.7350   24.3560   13.3550 C.3   123  ALA123      0.0304
     59  N         19.2430   23.1040   16.0070 N.am  124  SER124     -0.1938
     60  CA        18.3900   22.0290   16.5050 C.3   124  SER124      0.2055
     61  C         16.9870   22.5730   16.7220 C.2   124  SER124      0.2643
     62  O         16.7970   23.5870   17.3940 O.2   124  SER124     -0.2714
     63  CB        18.9280   21.4670   17.8090 C.3   124  SER124      0.2130
     64  OG        20.1540   20.8060   17.5780 O.3   124  SER124     -0.2179
     65  N         15.9960   21.8850   16.1680 N.am  125  THR125     -0.1950
     66  CA        14.6250   22.3490   16.2760 C.3   125  THR125      0.1897
     67  C         13.6090   21.4440   16.9750 C.2   125  THR125      0.2313
     68  O         12.4640   21.8570   17.1690 O.2   125  THR125     -0.2863
     69  CB        14.0980   22.7050   14.8840 C.3   125  THR125      0.1794
     70  OG1       14.5850   21.7480   13.9320 O.3   125  THR125     -0.2208
     71  CG2       14.5610   24.0910   14.4860 C.3   125  THR125      0.0378
     72  N         14.9390   14.0370   15.9110 N.3   173  TYR173     -0.1241
     73  CA        14.5460   15.0950   14.9890 C.3   173  TYR173      0.1605
     74  C         13.3260   14.7470   14.1610 C.2   173  TYR173      0.2264
     75  O         12.2730   15.3770   14.2790 O.2   173  TYR173     -0.2867
     76  CB        15.6610   15.4470   14.0210 C.3   173  TYR173      0.0534
     77  CG        15.1860   16.4510   13.0000 C.ar  173  TYR173     -0.0201
     78  CD1       14.6130   17.6560   13.4030 C.ar  173  TYR173     -0.0009
     79  CD2       15.3040   16.2010   11.6420 C.ar  173  TYR173     -0.0009
     80  CE1       14.1720   18.5840   12.4820 C.ar  173  TYR173      0.0417
     81  CE2       14.8680   17.1260   10.7090 C.ar  173  TYR173      0.0417
     82  CZ        14.3020   18.3160   11.1360 C.ar  173  TYR173      0.1957
     83  OH        13.8680   19.2390   10.2120 O.3   173  TYR173     -0.2866
     84  N         16.3630   14.2260    8.2640 N.3   228  ARG228     -0.1231
     85  CA        17.6420   14.9030    8.3900 C.3   228  ARG228      0.1694
     86  C         18.1630   15.1920    6.9960 C.2   228  ARG228      0.2592
     87  O         17.7140   14.5870    6.0290 O.2   228  ARG228     -0.2718
     88  CB        18.6490   14.0000    9.1020 C.3   228  ARG228      0.0321
     89  CG        18.4120   13.8050   10.5820 C.3   228  ARG228      0.0489
     90  CD        19.1750   12.5860   11.0740 C.3   228  ARG228      0.2205
     91  NE        20.5950   12.6450   10.7530 N.pl3 228  ARG228     -0.0865
     92  CZ        21.5490   12.9000   11.6410 C.cat 228  ARG228      0.5346
     93  NH1       21.2400   13.1210   12.9100 N.pl3 228  ARG228      0.1354
     94  NH2       22.8160   12.9250   11.2620 N.pl3 228  ARG228      0.1354
     95  N         19.1180   16.1100    6.8950 N.am  229  SER229     -0.1952
     96  CA        19.7100   16.4460    5.6100 C.3   229  SER229      0.1924
     97  C         20.1930   15.1740    4.9140 C.2   229  SER229      0.2314
     98  O         19.8990   14.9660    3.7410 O.2   229  SER229     -0.2863
     99  CB        20.8880   17.4040    5.8010 C.3   229  SER229      0.2116
    100  OG        21.5090   17.7100    4.5630 O.3   229  SER229     -0.2180
    101  N         12.8030   21.6140    6.9910 N.3   252  ASP252     -0.1225
    102  CA        14.0700   22.2950    6.7910 C.3   252  ASP252      0.1805
    103  C         15.1750   21.2640    6.6470 C.2   252  ASP252      0.2598
    104  O         16.1620   21.5140    5.9610 O.2   252  ASP252     -0.2718
    105  CB        14.3900   23.1980    7.9770 C.3   252  ASP252      0.1424
    106  CG        14.7150   22.4140    9.2300 C.2   252  ASP252      0.3668
    107  OD1       13.8690   21.5980    9.6520 O.co2 252  ASP252     -0.2456
    108  OD2       15.8150   22.6150    9.7910 O.co2 252  ASP252     -0.2456
    109  N         15.0090   20.1140    7.3010 N.am  253  GLY253     -0.1957
    110  CA        16.0070   19.0550    7.2220 C.3   253  GLY253      0.1869
    111  C         16.6140   18.9590    5.8310 C.2   253  GLY253      0.2309
    112  O         17.8230   18.7630    5.6590 O.2   253  GLY253     -0.2863
    113  N         21.1390   28.9640    7.6260 N.3   340  LYS340     -0.1245
    114  CA        21.2230   29.1600    9.0670 C.3   340  LYS340      0.1561
    115  C         22.4060   29.9510    9.6110 C.2   340  LYS340      0.2260
    116  O         22.4030   30.3300   10.7850 O.2   340  LYS340     -0.2867
    117  CB        21.1640   27.8030    9.7670 C.3   340  LYS340      0.0271
    118  CG        19.8320   27.1080    9.6130 C.3   340  LYS340      0.0035
    119  CD        19.6930   25.9490   10.5740 C.3   340  LYS340      0.0206
    120  CE        18.3080   25.3280   10.4940 C.3   340  LYS340      0.1093
    121  NZ        18.0310   24.7480    9.1540 N.3   340  LYS340     -0.1314
@<TRIPOS>BOND
     1    98    97    2
     2   100    99    1
     3    97    96    1
     4    96    99    1
     5    96    95    1
     6   112   111    2
     7     8     9    1
     8    18    16    1
     9   111   110    1
    10   104   103    2
    11    87    86    2
    12    15    16    2
    13    15    14    1
    14    16    17    1
    15   103   102    1
    16   103   109   am
    17    13    14    1
    18    13    12    1
    19   102   101    1
    20   102   105    1
    21    95    86   am
    22    86    85    1
    23     9    12    1
    24     9    10    1
    25   110   109    1
    26   113   114    1
    27   105   106    1
    28    10    11    2
    29    84    85    1
    30    85    88    1
    31    19    20    1
    32    47    46    1
    33    29    27    1
    34   114   115    1
    35   114   117    1
    36    88    89    1
    37   121   120    1
    38   106   107   ar
    39   106   108   ar
    40    26    27    2
    41    26    25    1
    42   115   116    2
    43   118   117    1
    44   118   119    1
    45    27    28    1
    46     4     3    2
    47    24    25    1
    48    24    23    1
    49    46    45   ar
    50    46    44   ar
    51    20    23    1
    52    20    21    1
    53    83    82    1
    54    45    43   ar
    55   120   119    1
    56    89    90    1
    57    81    82   ar
    58    81    79   ar
    59    91    90    1
    60    91    92    2
    61     3     2    1
    62    21    22    2
    63    44    42   ar
    64    82    80   ar
    65    94    92    1
    66     6     5    1
    67     6     7    1
    68    43    41   ar
    69     5     2    1
    70    92    93    1
    71    79    77   ar
    72     2     1    1
    73    42    41   ar
    74    80    78   ar
    75    35    34    1
    76     7     1    1
    77    41    40    1
    78    77    78   ar
    79    77    76    1
    80    58    55    1
    81    34    31    1
    82    70    69    1
    83    76    73    1
    84    40    37    1
    85    74    75    2
    86    74    73    1
    87    57    56    2
    88    55    56    1
    89    55    54    1
    90    71    69    1
    91    36    37    1
    92    36    32   am
    93    37    38    1
    94    32    31    1
    95    32    33    2
    96    31    30    1
    97    69    66    1
    98    56    59   am
    99    73    72    1
   100    38    48   am
   101    38    39    2
   102    48    49    1
   103    59    60    1
   104    65    66    1
   105    65    61   am
   106    66    67    1
   107    53    52    1
   108    60    61    1
   109    60    63    1
   110    61    62    2
   111    67    68    2
   112    52    49    1
   113    49    50    1
   114    64    63    1
   115    50    51    2
