@<TRIPOS>MOLECULE
tmp/2e4zA00.pdb
 82 76 0 0 0
SMALL
GASTEIGER

@<TRIPOS>ATOM
      1  N         38.7310   -2.5900    0.6070 N.3    17  PRO17      -0.2116
      2  CA        38.7300   -4.0450    0.7980 C.3    17  PRO17       0.1372
      3  C         37.6540   -4.4820    1.7880 C.2    17  PRO17       0.2244
      4  O         37.9910   -5.0590    2.8160 O.2    17  PRO17      -0.2868
      5  CB        40.1060   -4.3000    1.4030 C.3    17  PRO17       0.0268
      6  CG        40.3630   -3.0710    2.2060 C.3    17  PRO17       0.0207
      7  CD        39.7800   -1.9350    1.4150 C.3    17  PRO17       0.0892
      8  N         35.8120   -7.5980    6.4770 N.3    32  LYS32      -0.1245
      9  CA        36.8790   -7.1610    7.3790 C.3    32  LYS32       0.1561
     10  C         36.6280   -5.7550    7.9090 C.2    32  LYS32       0.2260
     11  O         36.7570   -4.7630    7.1850 O.2    32  LYS32      -0.2867
     12  CB        38.2760   -7.2990    6.7620 C.3    32  LYS32       0.0271
     13  CG        38.3740   -7.0410    5.2800 C.3    32  LYS32       0.0035
     14  CD        39.8080   -6.6800    4.9270 C.3    32  LYS32       0.0206
     15  CE        40.3930   -7.6260    3.8960 C.3    32  LYS32       0.1093
     16  NZ        41.8700   -7.4880    3.7860 N.3    32  LYS32      -0.1314
     17  N         39.5820   -2.8100    8.4150 N.3    35  ASN35      -0.1240
     18  CA        40.2630   -2.4880    7.1600 C.3    35  ASN35       0.1653
     19  C         39.3600   -2.1710    5.9690 C.2    35  ASN35       0.2266
     20  O         39.7990   -1.5320    5.0080 O.2    35  ASN35      -0.2867
     21  CB        41.2530   -3.5900    6.8000 C.3    35  ASN35       0.1155
     22  CG        42.6730   -3.1790    7.0540 C.2    35  ASN35       0.2627
     23  OD1       43.0450   -2.8400    8.1790 O.2    35  ASN35      -0.2716
     24  ND2       43.4780   -3.1810    6.0060 N.am   35  ASN35      -0.0877
     25  N         39.8580   -7.3240   -1.9410 N.3    71  SER71      -0.1217
     26  CA        41.2720   -7.6410   -1.7220 C.3    71  SER71       0.1889
     27  C         41.9340   -8.3780   -2.8870 C.2    71  SER71       0.2288
     28  O         42.8630   -9.1600   -2.6800 O.2    71  SER71      -0.2866
     29  CB        41.4680   -8.3960   -0.3990 C.3    71  SER71       0.2089
     30  OG        40.7520   -7.7750    0.6590 O.3    71  SER71      -0.2183
     31  N         43.6110    0.2310   -0.6740 N.3   101  SER101     -0.1202
     32  CA        44.4350   -0.4820    0.2980 C.3   101  SER101      0.2020
     33  C         44.9880   -1.7490   -0.3440 C.2   101  SER101      0.2619
     34  O         44.2190   -2.6020   -0.8070 O.2   101  SER101     -0.2717
     35  CB        43.5820   -0.8640    1.5150 C.3   101  SER101      0.2103
     36  OG        44.2720   -1.7350    2.4010 O.3   101  SER101     -0.2182
     37  N         46.3110   -1.8770   -0.3670 N.am  102  GLY102     -0.1942
     38  CA        46.9470   -3.0050   -1.0240 C.3   102  GLY102      0.2014
     39  C         47.5140   -2.6170   -2.3780 C.2   102  GLY102      0.2640
     40  O         46.7670   -2.4000   -3.3420 O.2   102  GLY102     -0.2714
     41  N         48.8430   -2.5470   -2.4440 N.am  103  SER103     -0.1935
     42  CA        49.5580   -1.9830   -3.5840 C.3   103  SER103      0.2055
     43  C         49.3360   -2.7590   -4.8720 C.2   103  SER103      0.2643
     44  O         49.1100   -2.1610   -5.9240 O.2   103  SER103     -0.2714
     45  CB        51.0490   -1.8830   -3.2720 C.3   103  SER103      0.2130
     46  OG        51.2780   -1.8480   -1.8700 O.3   103  SER103     -0.2179
     47  N         49.3930   -4.0880   -4.7740 N.am  104  SER104     -0.1949
     48  CA        49.1580   -4.9870   -5.9080 C.3   104  SER104      0.1924
     49  C         47.7910   -4.7370   -6.5480 C.2   104  SER104      0.2314
     50  O         47.6220   -4.8910   -7.7620 O.2   104  SER104     -0.2863
     51  CB        49.2730   -6.4470   -5.4670 C.3   104  SER104      0.2116
     52  OG        48.2430   -6.7870   -4.5510 O.3   104  SER104     -0.2180
     53  N         46.7460    3.7300    1.7520 N.3   124  ALA124     -0.1245
     54  CA        47.4080    2.6310    2.4470 C.3   124  ALA124      0.1562
     55  C         48.5810    2.0070    1.6890 C.2   124  ALA124      0.2260
     56  O         49.4330    1.3680    2.3060 O.2   124  ALA124     -0.2867
     57  CB        46.3920    1.5600    2.8280 C.3   124  ALA124      0.0290
     58  N         51.9490    1.3890    0.2010 N.3   126  THR126     -0.1218
     59  CA        53.2750    1.9260    0.4810 C.3   126  THR126      0.1862
     60  C         54.3890    1.2520   -0.3110 C.2   126  THR126      0.2287
     61  O         55.5660    1.5390   -0.0930 O.2   126  THR126     -0.2866
     62  CB        53.5860    1.8710    1.9880 C.3   126  THR126      0.1770
     63  OG1       53.4610    0.5220    2.4520 O.3   126  THR126     -0.2211
     64  CG2       52.5450    2.6470    2.7930 C.3   126  THR126      0.0375
     65  N         53.4320   -8.8890   -0.0990 N.3   173  SER173     -0.1202
     66  CA        53.7590   -7.6090   -0.7120 C.3   173  SER173      0.2020
     67  C         54.5580   -6.7450    0.2560 C.2   173  SER173      0.2618
     68  O         55.7560   -6.5410    0.0540 O.2   173  SER173     -0.2717
     69  CB        52.4960   -6.8820   -1.1960 C.3   173  SER173      0.2103
     70  OG        51.3740   -7.1700   -0.3670 O.3   173  SER173     -0.2182
     71  N         53.9010   -6.2840    1.3220 N.am  174  TYR174     -0.1975
     72  CA        54.4840   -5.3240    2.2710 C.3   174  TYR174      0.1639
     73  C         55.8510   -5.7260    2.8030 C.2   174  TYR174      0.2290
     74  O         56.7560   -4.8930    2.8970 O.2   174  TYR174     -0.2864
     75  CB        53.5340   -5.0820    3.4520 C.3   174  TYR174      0.0560
     76  CG        54.1280   -4.2550    4.5770 C.ar  174  TYR174     -0.0198
     77  CD1       54.3380   -2.8850    4.4220 C.ar  174  TYR174     -0.0009
     78  CD2       54.4740   -4.8470    5.7990 C.ar  174  TYR174     -0.0009
     79  CE1       54.8820   -2.1240    5.4500 C.ar  174  TYR174      0.0417
     80  CE2       55.0160   -4.0950    6.8320 C.ar  174  TYR174      0.0417
     81  CZ        55.2180   -2.7340    6.6500 C.ar  174  TYR174      0.1957
     82  OH        55.7530   -1.9700    7.6580 O.3   174  TYR174     -0.2866
@<TRIPOS>BOND
     1    50    49    2
     2    49    48    1
     3    44    43    2
     4    48    51    1
     5    48    47    1
     6    51    52    1
     7    43    47   am
     8    43    42    1
     9    42    45    1
    10    42    41    1
    11    40    39    2
    12    45    46    1
    13    27    28    2
    14    27    26    1
    15    41    39   am
    16    39    38    1
    17    25    26    1
    18    26    29    1
    19    69    66    1
    20    69    70    1
    21    38    37    1
    22    34    33    2
    23    66    65    1
    24    66    67    1
    25    31    32    1
    26    29    30    1
    27    37    33   am
    28    33    32    1
    29    60    61    2
    30    60    59    1
    31    68    67    2
    32    58    59    1
    33    67    71   am
    34    32    35    1
    35    59    62    1
    36     1     2    1
    37     1     7    1
    38     2     5    1
    39     2     3    1
    40    71    72    1
    41     5     6    1
    42     7     6    1
    43    35    36    1
    44    55    56    2
    45    55    54    1
    46    53    54    1
    47     3     4    2
    48    62    63    1
    49    62    64    1
    50    72    73    1
    51    72    75    1
    52    54    57    1
    53    73    74    2
    54    75    76    1
    55    16    15    1
    56    15    14    1
    57    77    76   ar
    58    77    79   ar
    59    76    78   ar
    60    14    13    1
    61    20    19    2
    62    13    12    1
    63    79    81   ar
    64    78    80   ar
    65    19    18    1
    66    24    22   am
    67     8     9    1
    68    81    80   ar
    69    81    82    1
    70    12     9    1
    71    21    22    1
    72    21    18    1
    73    22    23    2
    74    18    17    1
    75    11    10    2
    76     9    10    1
