@<TRIPOS>MOLECULE
tmp/2e50B00.pdb
 104 101 0 0 0
SMALL
GASTEIGER

@<TRIPOS>ATOM
      1  N          0.6270  -10.8890   -0.4350 N.3    33  VAL33      -0.1231
      2  CA         1.8920  -10.2660   -0.8080 C.3    33  VAL33       0.1692
      3  C          2.9350  -10.5620    0.2400 C.2    33  VAL33       0.2591
      4  O          4.0790  -10.8830   -0.0730 O.2    33  VAL33      -0.2718
      5  CB         1.8260   -8.7220   -0.9990 C.3    33  VAL33       0.0266
      6  CG1        3.3200   -8.1080   -1.2070 C.3    33  VAL33       0.0020
      7  CG2        0.8910   -8.3260   -2.1330 C.3    33  VAL33       0.0020
      8  N          2.5510  -10.4090    1.4910 N.am   34  GLU34      -0.1979
      9  CA         3.4520  -10.6750    2.6020 C.3    34  GLU34       0.1602
     10  C          3.8670  -12.1430    2.6960 C.2    34  GLU34       0.2287
     11  O          5.0130  -12.4320    3.0140 O.2    34  GLU34      -0.2864
     12  CB         2.7880  -10.2310    3.9060 C.3    34  GLU34       0.0415
     13  CG         2.8970   -8.7060    4.1120 C.3    34  GLU34       0.1163
     14  CD         1.9810   -8.1870    5.2360 C.2    34  GLU34       0.3649
     15  OE1        2.0780   -6.9960    5.6450 O.co2  34  GLU34      -0.2457
     16  OE2        1.1530   -8.9790    5.7090 O.co2  34  GLU34      -0.2457
     17  N          6.4750  -12.6890   -0.2620 N.3    37  TYR37      -0.1241
     18  CA         7.8010  -12.1460    0.0210 C.3    37  TYR37       0.1605
     19  C          8.4950  -12.7180    1.2430 C.2    37  TYR37       0.2264
     20  O          9.6840  -12.7000    1.3310 O.2    37  TYR37      -0.2867
     21  CB         7.7280  -10.6200    0.0280 C.3    37  TYR37       0.0534
     22  CG         7.6800  -10.1390   -1.4260 C.ar   37  TYR37      -0.0201
     23  CD1        8.8550  -10.0340   -2.1850 C.ar   37  TYR37      -0.0009
     24  CD2        6.4630   -9.8910   -2.0600 C.ar   37  TYR37      -0.0009
     25  CE1        8.8140   -9.6330   -3.5620 C.ar   37  TYR37       0.0417
     26  CE2        6.4150   -9.4980   -3.3990 C.ar   37  TYR37       0.0417
     27  CZ         7.5770   -9.3860   -4.1430 C.ar   37  TYR37       0.1957
     28  OH         7.4770   -8.9990   -5.4630 O.3    37  TYR37      -0.2866
     29  N         12.4380  -14.1920    0.6990 N.3    41  ARG41      -0.1245
     30  CA        13.4540  -13.7040    1.5940 C.3    41  ARG41       0.1563
     31  C         14.1850  -14.8020    2.3880 C.2    41  ARG41       0.2260
     32  O         15.2930  -14.5940    2.7870 O.2    41  ARG41      -0.2867
     33  CB        12.8650  -12.6500    2.5500 C.3    41  ARG41       0.0307
     34  CG        12.7060  -11.2610    1.8640 C.3    41  ARG41       0.0489
     35  CD        12.4300  -10.1540    2.9100 C.3    41  ARG41       0.2205
     36  NE        11.1850  -10.5230    3.5350 N.pl3  41  ARG41      -0.0865
     37  CZ        10.0110   -9.9220    3.3650 C.cat  41  ARG41       0.5346
     38  NH1        9.8860   -8.8160    2.6580 N.pl3  41  ARG41       0.1354
     39  NH2        8.9600  -10.4640    3.9520 N.pl3  41  ARG41       0.1354
     40  N         17.8640  -14.6120    4.4580 N.3    45  PHE45      -0.1241
     41  CA        18.0200  -14.7000    5.9180 C.3    45  PHE45       0.1605
     42  C         18.8510  -15.8850    6.3380 C.2    45  PHE45       0.2264
     43  O         19.6540  -15.7440    7.2420 O.2    45  PHE45      -0.2867
     44  CB        16.6800  -14.6860    6.6520 C.3    45  PHE45       0.0534
     45  CG        16.0070  -13.3310    6.6070 C.ar   45  PHE45      -0.0203
     46  CD1       14.7450  -13.1780    6.0310 C.ar   45  PHE45      -0.0042
     47  CD2       16.6220  -12.2220    7.1330 C.ar   45  PHE45      -0.0042
     48  CE1       14.1190  -11.9270    6.0160 C.ar   45  PHE45      -0.0003
     49  CE2       16.0060  -10.9750    7.0920 C.ar   45  PHE45      -0.0003
     50  CZ        14.7600  -10.8220    6.5140 C.ar   45  PHE45      -0.0000
     51  N         14.1220  -14.6300   13.7160 N.3    89  VAL89      -0.1245
     52  CA        12.7040  -14.2870   13.6480 C.3    89  VAL89       0.1561
     53  C         12.1380  -15.1290   12.5200 C.2    89  VAL89       0.2260
     54  O         12.6590  -15.1590   11.4380 O.2    89  VAL89      -0.2867
     55  CB        12.4730  -12.7720   13.3540 C.3    89  VAL89       0.0252
     56  CG1       10.9640  -12.4570   13.2030 C.3    89  VAL89       0.0019
     57  CG2       13.1590  -11.8760   14.4240 C.3    89  VAL89       0.0019
     58  N          8.3810  -15.7820   10.7520 N.3    91  GLU91      -0.1245
     59  CA         6.9470  -15.5660   10.7050 C.3    91  GLU91       0.1567
     60  C          6.2970  -16.8380   10.2370 C.2    91  GLU91       0.2260
     61  O          6.7910  -17.5090    9.3250 O.2    91  GLU91      -0.2867
     62  CB         6.5520  -14.3940    9.7690 C.3    91  GLU91       0.0388
     63  CG         7.2010  -13.1010   10.1630 C.3    91  GLU91       0.1160
     64  CD         6.6560  -11.9160    9.4560 C.2    91  GLU91       0.3649
     65  OE1        5.4740  -11.5860    9.6750 O.co2  91  GLU91      -0.2457
     66  OE2        7.4300  -11.2850    8.6940 O.co2  91  GLU91      -0.2457
     67  N         11.2140   -7.7480   15.4720 N.3   153  LYS153     -0.1231
     68  CA        10.6830   -8.2150   14.1820 C.3   153  LYS153      0.1693
     69  C         10.7760   -7.1700   13.0640 C.2   153  LYS153      0.2592
     70  O         11.2680   -7.4670   11.9540 O.2   153  LYS153     -0.2718
     71  CB         9.2210   -8.7130   14.3180 C.3   153  LYS153      0.0285
     72  CG         8.6350   -9.2780   13.0280 C.3   153  LYS153      0.0035
     73  CD         7.2960   -9.9750   13.2460 C.3   153  LYS153      0.0206
     74  CE         6.1380   -9.1880   12.6650 C.3   153  LYS153      0.1093
     75  NZ         5.6580   -8.2670   13.6800 N.3   153  LYS153     -0.1314
     76  N         10.3180   -5.9560   13.3770 N.am  154  ASP154     -0.1974
     77  CA        10.1190   -4.8800   12.4160 C.3   154  ASP154      0.1709
     78  C         11.2700   -3.8610   12.2730 C.2   154  ASP154      0.2293
     79  O         11.5070   -3.3740   11.1500 O.2   154  ASP154     -0.2864
     80  CB         8.8050   -4.1430   12.7100 C.3   154  ASP154      0.1436
     81  CG         7.5420   -5.0260   12.5140 C.2   154  ASP154      0.3671
     82  OD1        7.5310   -6.0240   11.7620 O.co2 154  ASP154     -0.2456
     83  OD2        6.5180   -4.6780   13.1120 O.co2 154  ASP154     -0.2456
     84  N         15.3100   -6.8160   12.8360 N.3   157  TRP157     -0.1228
     85  CA        15.3850   -7.9820   11.9990 C.3   157  TRP157      0.1722
     86  C         15.6560   -7.7480   10.4720 C.2   157  TRP157      0.2437
     87  O         16.5040   -8.4520    9.9200 O.2   157  TRP157     -0.2733
     88  CB        14.1840   -8.9130   12.2220 C.3   157  TRP157      0.0563
     89  CG        14.2750  -10.1950   11.4210 C.ar  157  TRP157      0.0003
     90  CD1       13.4690  -10.5850   10.3870 C.ar  157  TRP157      0.0946
     91  CD2       15.2540  -11.2480   11.5970 C.ar  157  TRP157      0.0152
     92  NE1       13.8760  -11.8330    9.9110 N.ar  157  TRP157     -0.2442
     93  CE2       14.9680  -12.2560   10.6370 C.ar  157  TRP157      0.0810
     94  CE3       16.3160  -11.4450   12.4900 C.ar  157  TRP157      0.0012
     95  CZ2       15.7560  -13.4330   10.5090 C.ar  157  TRP157      0.0191
     96  CZ3       17.1020  -12.6320   12.3720 C.ar  157  TRP157      0.0001
     97  CH2       16.8020  -13.6070   11.3830 C.ar  157  TRP157      0.0015
     98  N         14.9460   -6.8070    9.8100 N.am  158  PRO158     -0.2729
     99  CA        15.1710   -6.5990    8.3560 C.3   158  PRO158      0.1401
    100  C         16.5920   -6.1490    8.0060 C.2   158  PRO158      0.2269
    101  O         17.0830   -6.4700    6.9370 O.2   158  PRO158     -0.2865
    102  CB        14.2080   -5.4510    7.9970 C.3   158  PRO158      0.0296
    103  CG        13.3090   -5.3430    9.1240 C.3   158  PRO158      0.0237
    104  CD        13.9460   -5.8710   10.3300 C.3   158  PRO158      0.0939
@<TRIPOS>BOND
     1    28    27    1
     2    27    25   ar
     3    27    26   ar
     4    25    23   ar
     5    26    24   ar
     6    23    22   ar
     7     7     5    1
     8    24    22   ar
     9    22    21    1
    10     6     5    1
    11     5     2    1
    12     2     1    1
    13     2     3    1
    14    17    18    1
    15     4     3    2
    16    18    21    1
    17    18    19    1
    18     3     8   am
    19    29    30    1
    20    19    20    2
    21     8     9    1
    22    30    31    1
    23    30    33    1
    24    34    33    1
    25    34    35    1
    26    31    32    2
    27     9    10    1
    28     9    12    1
    29    38    37    1
    30    10    11    2
    31    35    36    1
    32    37    36    2
    33    37    39    1
    34    12    13    1
    35    13    14    1
    36    40    41    1
    37    14    15   ar
    38    14    16   ar
    39    41    42    1
    40    41    44    1
    41    48    46   ar
    42    48    50   ar
    43    46    45   ar
    44    42    43    2
    45    50    49   ar
    46    45    44    1
    47    45    47   ar
    48   101   100    2
    49    49    47   ar
    50   102    99    1
    51   102   103    1
    52   100    99    1
    53    99    98    1
    54    66    64   ar
    55   103   104    1
    56    61    60    2
    57    64    65   ar
    58    64    63    1
    59    62    63    1
    60    62    59    1
    61    98   104    1
    62    98    86   am
    63    92    90   ar
    64    92    93   ar
    65    87    86    2
    66    60    59    1
    67    90    89   ar
    68    86    85    1
    69    95    93   ar
    70    95    97   ar
    71    93    91   ar
    72    59    58    1
    73    79    78    2
    74    97    96   ar
    75    89    91   ar
    76    89    88    1
    77    54    53    2
    78    91    94   ar
    79    82    81   ar
    80    70    69    2
    81    85    88    1
    82    85    84    1
    83    78    77    1
    84    96    94   ar
    85    77    80    1
    86    77    76    1
    87    81    80    1
    88    81    83   ar
    89    53    52    1
    90    74    73    1
    91    74    75    1
    92    72    73    1
    93    72    71    1
    94    69    76   am
    95    69    68    1
    96    56    55    1
    97    55    52    1
    98    55    57    1
    99    52    51    1
   100    68    71    1
   101    68    67    1
