@<TRIPOS>MOLECULE
tmp/2e50C00.pdb
 132 130 0 0 0
SMALL
GASTEIGER

@<TRIPOS>ATOM
      1  N          2.5670    1.6510   64.6900 N.3    54  GLU54      -0.1231
      2  CA         3.1730    2.6880   63.8650 C.3    54  GLU54       0.1699
      3  C          3.9150    3.7010   64.7290 C.2    54  GLU54       0.2592
      4  O          5.0370    4.1020   64.4050 O.2    54  GLU54      -0.2718
      5  CB         2.0970    3.4420   63.0960 C.3    54  GLU54       0.0402
      6  CG         2.6140    4.6080   62.2190 C.3    54  GLU54       0.1161
      7  CD         3.5050    4.1240   61.0570 C.2    54  GLU54       0.3649
      8  OE1        3.8000    2.9280   61.0130 O.co2  54  GLU54      -0.2457
      9  OE2        3.9310    4.9290   60.2040 O.co2  54  GLU54      -0.2457
     10  N          3.2470    4.0930   65.8090 N.am   55  GLN55      -0.1979
     11  CA         3.7130    5.0250   66.7820 C.3    55  GLN55       0.1601
     12  C          4.9230    4.4870   67.5640 C.2    55  GLN55       0.2287
     13  O          5.8940    5.1900   67.7300 O.2    55  GLN55      -0.2864
     14  CB         2.5520    5.3590   67.6960 C.3    55  GLN55       0.0394
     15  CG         2.6140    6.6900   68.3000 C.3    55  GLN55       0.0908
     16  CD         2.8730    6.6480   69.8100 C.2    55  GLN55       0.2608
     17  OE1        3.5840    5.7560   70.3200 O.2    55  GLN55      -0.2717
     18  NE2        2.3110    7.6360   70.5370 N.am   55  GLN55      -0.0878
     19  N          7.8110    4.3520   64.9010 N.3    58  ASN58      -0.1225
     20  CA         8.1780    5.6830   64.4990 C.3    58  ASN58       0.1785
     21  C          9.0780    6.3330   65.5440 C.2    58  ASN58       0.2597
     22  O         10.0100    7.0020   65.1850 O.2    58  ASN58      -0.2718
     23  CB         6.9290    6.5640   64.3080 C.3    58  ASN58       0.1169
     24  CG         6.3090    6.4000   62.9510 C.2    58  ASN58       0.2627
     25  OD1        5.3110    7.0550   62.6250 O.2    58  ASN58      -0.2716
     26  ND2        6.8950    5.5480   62.1360 N.am   58  ASN58      -0.0877
     27  N          8.7420    6.1870   66.8220 N.am   59  LYS59      -0.1980
     28  CA         9.5570    6.7230   67.9020 C.3    59  LYS59       0.1596
     29  C         10.9390    6.0560   67.9620 C.2    59  LYS59       0.2287
     30  O         11.9720    6.7130   68.2050 O.2    59  LYS59      -0.2864
     31  CB         8.8270    6.6310   69.2640 C.3    59  LYS59       0.0298
     32  CG         7.8620    7.7960   69.4900 C.3    59  LYS59       0.0038
     33  CD         7.2100    7.7840   70.9300 C.3    59  LYS59       0.0206
     34  CE         5.6630    8.0220   70.8840 C.3    59  LYS59       0.1093
     35  NZ         4.9710    7.7820   72.2420 N.3    59  LYS59      -0.1314
     36  N         12.4270    4.7260   65.4180 N.3    61  ARG61      -0.1231
     37  CA        13.1210    5.0050   64.1720 C.3    61  ARG61       0.1694
     38  C         13.6100    6.4210   64.0680 C.2    61  ARG61       0.2591
     39  O         14.6550    6.6440   63.4670 O.2    61  ARG61      -0.2718
     40  CB        12.2240    4.7200   62.9740 C.3    61  ARG61       0.0321
     41  CG        12.2060    3.2240   62.6610 C.3    61  ARG61       0.0489
     42  CD        11.2880    2.9440   61.4830 C.3    61  ARG61       0.2205
     43  NE         9.8840    3.2170   61.7860 N.pl3  61  ARG61      -0.0865
     44  CZ         8.8470    2.7460   61.0570 C.cat  61  ARG61       0.5346
     45  NH1        9.0490    1.9540   60.0000 N.pl3  61  ARG61       0.1354
     46  NH2        7.6000    3.0600   61.3720 N.pl3  61  ARG61       0.1354
     47  N         12.8600    7.3750   64.6240 N.am   62  GLN62      -0.1979
     48  CA        13.2380    8.7520   64.4840 C.3    62  GLN62       0.1601
     49  C         14.7320    9.0870   64.7920 C.2    62  GLN62       0.2287
     50  O         15.3940    9.7420   63.9750 O.2    62  GLN62      -0.2864
     51  CB        12.2480    9.6190   65.2680 C.3    62  GLN62       0.0394
     52  CG        12.5490   11.0860   65.3150 C.3    62  GLN62       0.0908
     53  CD        11.4930   11.8470   66.0310 C.2    62  GLN62       0.2608
     54  OE1       10.9800   11.3990   67.0530 O.2    62  GLN62      -0.2717
     55  NE2       11.1200   12.9950   65.4910 N.am   62  GLN62      -0.0878
     56  N         16.9570    7.9960   61.9450 N.3    65  PHE65      -0.1227
     57  CA        16.8490    8.8330   60.7240 C.3    65  PHE65       0.1736
     58  C         17.4950   10.1960   60.9630 C.2    65  PHE65       0.2595
     59  O         18.1120   10.7290   60.0570 O.2    65  PHE65      -0.2718
     60  CB        15.3810    9.0470   60.2570 C.3    65  PHE65       0.0547
     61  CG        14.7820    7.8840   59.4740 C.ar   65  PHE65      -0.0202
     62  CD1       14.2460    6.7660   60.1320 C.ar   65  PHE65      -0.0042
     63  CD2       14.7270    7.9200   58.0740 C.ar   65  PHE65      -0.0042
     64  CE1       13.6580    5.7040   59.4300 C.ar   65  PHE65      -0.0003
     65  CE2       14.1060    6.8550   57.3380 C.ar   65  PHE65      -0.0003
     66  CZ        13.5900    5.7320   58.0230 C.ar   65  PHE65      -0.0000
     67  N         17.2940   10.7980   62.1440 N.am   66  GLN66      -0.1979
     68  CA        18.0860   11.9980   62.5140 C.3    66  GLN66       0.1601
     69  C         19.5960   11.8200   62.4520 C.2    66  GLN66       0.2287
     70  O         20.2990   12.6680   61.9100 O.2    66  GLN66      -0.2864
     71  CB        17.7220   12.5670   63.8850 C.3    66  GLN66       0.0394
     72  CG        16.2800   13.0800   63.9210 C.3    66  GLN66       0.0908
     73  CD        15.8330   13.3400   65.3320 C.2    66  GLN66       0.2608
     74  OE1       16.5000   12.8610   66.2600 O.2    66  GLN66      -0.2717
     75  NE2       14.6940   14.0800   65.5260 N.am   66  GLN66      -0.0878
     76  N         15.4280   15.9810   53.2240 N.3   108  GLU108     -0.1231
     77  CA        14.6340   15.6730   54.3950 C.3   108  GLU108      0.1699
     78  C         13.1650   15.4340   53.9880 C.2   108  GLU108      0.2592
     79  O         12.5460   16.2760   53.3820 O.2   108  GLU108     -0.2718
     80  CB        14.8570   16.8010   55.4090 C.3   108  GLU108      0.0402
     81  CG        14.3900   16.5010   56.7940 C.3   108  GLU108      0.1161
     82  CD        15.1050   15.3440   57.4590 C.2   108  GLU108      0.3649
     83  OE1       16.3320   15.1930   57.1800 O.co2 108  GLU108     -0.2457
     84  OE2       14.4130   14.6350   58.2740 O.co2 108  GLU108     -0.2457
     85  N         12.6650   14.2330   54.2670 N.am  109  VAL109     -0.1966
     86  CA        11.2620   13.8800   54.0590 C.3   109  VAL109      0.1727
     87  C         10.5900   13.8510   55.4360 C.2   109  VAL109      0.2617
     88  O         11.0320   13.1490   56.3480 O.2   109  VAL109     -0.2715
     89  CB        11.0830   12.5490   53.2700 C.3   109  VAL109      0.0290
     90  CG1        9.5910   12.1940   53.0250 C.3   109  VAL109      0.0023
     91  CG2       11.8820   12.5450   51.9280 C.3   109  VAL109      0.0023
     92  N          9.5370   14.6690   55.5880 N.am  110  THR110     -0.1937
     93  CA         8.7830   14.7480   56.8030 C.3   110  THR110      0.2028
     94  C          7.3410   14.5160   56.4360 C.2   110  THR110      0.2642
     95  O          6.8660   15.1210   55.4910 O.2   110  THR110     -0.2714
     96  CB         8.9570   16.1050   57.4780 C.3   110  THR110      0.1808
     97  OG1       10.3290   16.5640   57.3580 O.3   110  THR110     -0.2208
     98  CG2        8.5230   16.0380   58.9470 C.3   110  THR110      0.0379
     99  N          6.6790   13.6040   57.1580 N.am  111  GLU111     -0.1963
    100  CA         5.3180   13.1820   56.9210 C.3   111  GLU111      0.1733
    101  C          4.5240   13.5990   58.1370 C.2   111  GLU111      0.2616
    102  O          4.9870   13.4240   59.2680 O.2   111  GLU111     -0.2715
    103  CB         5.2150   11.6370   56.6880 C.3   111  GLU111      0.0429
    104  CG         6.1360   11.1370   55.5290 C.3   111  GLU111      0.1163
    105  CD         6.3390    9.5850   55.4170 C.2   111  GLU111      0.3649
    106  OE1        7.5390    9.1270   55.3480 O.co2 111  GLU111     -0.2457
    107  OE2        5.3230    8.8510   55.3600 O.co2 111  GLU111     -0.2457
    108  N          3.3150   14.1380   57.9170 N.am  112  PHE112     -0.1974
    109  CA         2.5490   14.7100   59.0280 C.3   112  PHE112      0.1639
    110  C          1.3800   13.9080   59.5430 C.2   112  PHE112      0.2290
    111  O          0.7650   14.2910   60.5510 O.2   112  PHE112     -0.2864
    112  CB         2.1260   16.1450   58.7050 C.3   112  PHE112      0.0560
    113  CG         3.2470   16.9710   58.1940 C.ar  112  PHE112     -0.0200
    114  CD1        3.2670   17.4100   56.8840 C.ar  112  PHE112     -0.0042
    115  CD2        4.3400   17.2520   59.0100 C.ar  112  PHE112     -0.0042
    116  CE1        4.3550   18.1610   56.4220 C.ar  112  PHE112     -0.0003
    117  CE2        5.3930   17.9790   58.5610 C.ar  112  PHE112     -0.0003
    118  CZ         5.4200   18.4250   57.2600 C.ar  112  PHE112     -0.0000
    119  N         13.7490    7.3650   50.5620 N.3   177  TRP177     -0.1241
    120  CA        13.9070    7.7870   51.9740 C.3   177  TRP177      0.1605
    121  C         14.1190    6.6810   53.0380 C.2   177  TRP177      0.2264
    122  O         14.9980    6.8200   53.9200 O.2   177  TRP177     -0.2867
    123  CB        12.7250    8.6880   52.3810 C.3   177  TRP177      0.0550
    124  CG        12.9150    9.2940   53.7200 C.ar  177  TRP177      0.0003
    125  CD1       12.2370    8.9970   54.8570 C.ar  177  TRP177      0.0946
    126  CD2       13.9070   10.2720   54.0670 C.ar  177  TRP177      0.0152
    127  NE1       12.7340    9.7550   55.8950 N.ar  177  TRP177     -0.2442
    128  CE2       13.7620   10.5360   55.4330 C.ar  177  TRP177      0.0810
    129  CE3       14.9290   10.9370   53.3390 C.ar  177  TRP177      0.0012
    130  CZ2       14.5960   11.4270   56.1210 C.ar  177  TRP177      0.0191
    131  CZ3       15.7360   11.8560   54.0080 C.ar  177  TRP177      0.0001
    132  CH2       15.5650   12.0790   55.3930 C.ar  177  TRP177      0.0015
@<TRIPOS>BOND
     1   119   120    1
     2    91    89    1
     3   120   123    1
     4   120   121    1
     5   123   124    1
     6    90    89    1
     7   121   122    2
     8    76    77    1
     9    89    86    1
    10   129   131   ar
    11   129   126   ar
    12    79    78    2
    13   124   126   ar
    14   124   125   ar
    15    78    85   am
    16    78    77    1
    17   131   132   ar
    18    86    85    1
    19    86    87    1
    20   126   128   ar
    21    77    80    1
    22   125   127   ar
    23   106   105   ar
    24   107   105   ar
    25   132   130   ar
    26    80    81    1
    27   105   104    1
    28   128   127   ar
    29   128   130   ar
    30    87    92   am
    31    87    88    2
    32    95    94    2
    33   104   103    1
    34    92    93    1
    35   116   114   ar
    36   116   118   ar
    37    94    93    1
    38    94    99   am
    39   103   100    1
    40    81    82    1
    41    93    96    1
    42   114   113   ar
    43   100    99    1
    44   100   101    1
    45    83    82   ar
    46   118   117   ar
    47    65    66   ar
    48    65    63   ar
    49    97    96    1
    50    82    84   ar
    51    96    98    1
    52   108   101   am
    53   108   109    1
    54    66    64   ar
    55    63    61   ar
    56   101   102    2
    57   113   112    1
    58   113   115   ar
    59   117   115   ar
    60   112   109    1
    61   109   110    1
    62    64    62   ar
    63    61    62   ar
    64    61    60    1
    65   110   111    2
    66    45    44    1
    67    59    58    2
    68     9     7   ar
    69    60    57    1
    70    57    58    1
    71    57    56    1
    72    58    67   am
    73     8     7   ar
    74    44    46    1
    75    44    43    2
    76     7     6    1
    77    42    43    1
    78    42    41    1
    79    70    69    2
    80    26    24   am
    81    67    68    1
    82     6     5    1
    83    69    68    1
    84    68    71    1
    85    25    24    2
    86    41    40    1
    87    24    23    1
    88    40    37    1
    89     5     2    1
    90    39    38    2
    91     2     1    1
    92     2     3    1
    93    71    72    1
    94    72    73    1
    95    50    49    2
    96    38    37    1
    97    38    47   am
    98    37    36    1
    99    23    20    1
   100     4     3    2
   101    48    47    1
   102    48    49    1
   103    48    51    1
   104    20    19    1
   105    20    21    1
   106     3    10   am
   107    22    21    2
   108    51    52    1
   109    52    53    1
   110    73    75   am
   111    73    74    2
   112    55    53   am
   113    21    27   am
   114    10    11    1
   115    53    54    2
   116    11    12    1
   117    11    14    1
   118    27    28    1
   119    12    13    2
   120    14    15    1
   121    28    29    1
   122    28    31    1
   123    29    30    2
   124    15    16    1
   125    31    32    1
   126    32    33    1
   127    16    17    2
   128    16    18   am
   129    34    33    1
   130    34    35    1
