@<TRIPOS>MOLECULE
tmp/2e51C00.pdb
 116 111 0 0 0
SMALL
GASTEIGER

@<TRIPOS>ATOM
      1  N         62.3950   43.7600   35.1350 N.3    84  HIS84      -0.1241
      2  CA        63.4020   42.8310   34.6340 C.3    84  HIS84       0.1621
      3  C         63.2140   41.3900   35.1470 C.2    84  HIS84       0.2264
      4  O         63.2500   41.1440   36.3710 O.2    84  HIS84      -0.2867
      5  CB        64.7940   43.3410   35.0290 C.3    84  HIS84       0.0745
      6  CG        64.8810   43.7710   36.4600 C.ar   84  HIS84       0.0817
      7  ND1       65.0050   45.0940   36.8300 N.ar   84  HIS84      -0.2268
      8  CD2       64.7950   43.0630   37.6130 C.ar   84  HIS84       0.1154
      9  CE1       64.9930   45.1810   38.1510 C.ar   84  HIS84       0.1986
     10  NE2       64.8660   43.9630   38.6490 N.ar   84  HIS84      -0.2212
     11  N         64.0040   37.3350   35.8610 N.3    86  ALA86      -0.1231
     12  CA        65.1920   36.7480   36.4950 C.3    86  ALA86       0.1694
     13  C         64.8800   35.3710   37.0610 C.2    86  ALA86       0.2592
     14  O         63.7230   35.0530   37.2430 O.2    86  ALA86      -0.2718
     15  CB        65.6880   37.6750   37.6160 C.3    86  ALA86       0.0304
     16  N         65.8900   34.5380   37.3010 N.am   87  ASP87      -0.1974
     17  CA        67.2920   34.8660   37.0200 C.3    87  ASP87       0.1709
     18  C         67.8560   34.0240   35.8780 C.2    87  ASP87       0.2293
     19  O         68.7260   34.4770   35.1360 O.2    87  ASP87      -0.2864
     20  CB        68.1650   34.6550   38.2550 C.3    87  ASP87       0.1436
     21  CG        68.3620   35.9320   39.0480 C.2    87  ASP87       0.3671
     22  OD1       67.7130   36.0660   40.0980 O.co2  87  ASP87      -0.2456
     23  OD2       69.1550   36.8010   38.6130 O.co2  87  ASP87      -0.2456
     24  N         70.4560   31.7040   45.8430 N.3   103  GLY103     -0.1210
     25  CA        69.5790   31.8680   44.7070 C.3   103  GLY103      0.1956
     26  C         70.0060   33.0360   43.8460 C.2   103  GLY103      0.2612
     27  O         71.2060   33.3010   43.6740 O.2   103  GLY103     -0.2717
     28  N         69.0320   33.7350   43.2740 N.am  104  GLY104     -0.1942
     29  CA        69.3390   34.8790   42.4410 C.3   104  GLY104      0.2014
     30  C         70.3080   34.5590   41.3100 C.2   104  GLY104      0.2639
     31  O         70.2480   33.4780   40.7050 O.2   104  GLY104     -0.2714
     32  N         71.2060   35.5050   41.0270 N.am  105  GLY105     -0.1939
     33  CA        72.1840   35.3590   39.9580 C.3   105  GLY105      0.2014
     34  C         73.1510   34.2260   40.1890 C.2   105  GLY105      0.2638
     35  O         74.0070   33.9850   39.3470 O.2   105  GLY105     -0.2714
     36  N         73.0220   33.5420   41.3290 N.am  106  TYR106     -0.1973
     37  CA        73.8890   32.4200   41.6520 C.3   106  TYR106      0.1639
     38  C         73.2500   31.0940   41.2610 C.2   106  TYR106      0.2290
     39  O         73.8460   30.0240   41.4650 O.2   106  TYR106     -0.2864
     40  CB        74.2250   32.4330   43.1330 C.3   106  TYR106      0.0560
     41  CG        75.1610   33.5600   43.5020 C.ar  106  TYR106     -0.0198
     42  CD1       76.4460   33.6300   42.9540 C.ar  106  TYR106     -0.0009
     43  CD2       74.7590   34.5680   44.3700 C.ar  106  TYR106     -0.0009
     44  CE1       77.3030   34.6730   43.2590 C.ar  106  TYR106      0.0417
     45  CE2       75.6030   35.6070   44.6810 C.ar  106  TYR106      0.0417
     46  CZ        76.8760   35.6590   44.1220 C.ar  106  TYR106      0.1957
     47  OH        77.7080   36.7130   44.4150 O.3   106  TYR106     -0.2866
     48  N         69.1600   37.7010   33.7180 N.3   126  PHE126     -0.1241
     49  CA        69.2850   38.9320   34.4850 C.3   126  PHE126      0.1605
     50  C         70.7330   39.3930   34.5000 C.2   126  PHE126      0.2264
     51  O         71.6450   38.6130   34.7960 O.2   126  PHE126     -0.2867
     52  CB        68.8360   38.7260   35.9310 C.3   126  PHE126      0.0534
     53  CG        68.9300   39.9650   36.7730 C.ar  126  PHE126     -0.0203
     54  CD1       67.9490   40.9560   36.6910 C.ar  126  PHE126     -0.0042
     55  CD2       70.0120   40.1570   37.6310 C.ar  126  PHE126     -0.0042
     56  CE1       68.0410   42.1320   37.4600 C.ar  126  PHE126     -0.0003
     57  CE2       70.1250   41.3200   38.4040 C.ar  126  PHE126     -0.0003
     58  CZ        69.1360   42.3080   38.3170 C.ar  126  PHE126     -0.0000
     59  N         73.6570   40.8530   36.1460 N.3   128  ASN128     -0.1240
     60  CA        74.2740   41.1840   37.4150 C.3   128  ASN128      0.1653
     61  C         75.4860   42.0820   37.1270 C.2   128  ASN128      0.2266
     62  O         75.8210   42.3310   35.9780 O.2   128  ASN128     -0.2867
     63  CB        74.7210   39.9150   38.1430 C.3   128  ASN128      0.1155
     64  CG        73.5520   39.0380   38.5580 C.2   128  ASN128      0.2627
     65  OD1       72.9000   38.4010   37.7260 O.2   128  ASN128     -0.2716
     66  ND2       73.2810   39.0000   39.8520 N.am  128  ASN128     -0.0877
     67  N         78.5120   41.4960   37.3030 N.3   130  TRP130     -0.1241
     68  CA        79.5360   40.7470   36.5830 C.3   130  TRP130      0.1605
     69  C         79.1540   40.2560   35.1880 C.2   130  TRP130      0.2264
     70  O         79.9600   39.6280   34.4950 O.2   130  TRP130     -0.2867
     71  CB        79.9300   39.5680   37.4510 C.3   130  TRP130      0.0550
     72  CG        78.7800   38.7180   37.7800 C.ar  130  TRP130      0.0003
     73  CD1       78.1290   37.8740   36.9420 C.ar  130  TRP130      0.0946
     74  CD2       78.1470   38.5910   39.0570 C.ar  130  TRP130      0.0152
     75  NE1       77.1300   37.2130   37.6150 N.ar  130  TRP130     -0.2442
     76  CE2       77.1170   37.6330   38.9180 C.ar  130  TRP130      0.0810
     77  CE3       78.3510   39.1910   40.3090 C.ar  130  TRP130      0.0012
     78  CZ2       76.2890   37.2520   39.9860 C.ar  130  TRP130      0.0191
     79  CZ3       77.5250   38.8130   41.3800 C.ar  130  TRP130      0.0001
     80  CH2       76.5080   37.8500   41.2070 C.ar  130  TRP130      0.0015
     81  N         64.0770   36.1350   40.9010 N.3   211  GLY211     -0.1210
     82  CA        64.5460   37.2950   41.6360 C.3   211  GLY211      0.1956
     83  C         64.6860   37.0960   43.1320 C.2   211  GLY211      0.2611
     84  O         63.8290   36.5020   43.7910 O.2   211  GLY211     -0.2717
     85  N         65.7840   37.6000   43.6690 N.am  212  ASP212     -0.1973
     86  CA        66.0670   37.5360   45.0910 C.3   212  ASP212      0.1709
     87  C         65.3330   38.7090   45.7530 C.2   212  ASP212      0.2293
     88  O         65.2640   39.8110   45.1840 O.2   212  ASP212     -0.2864
     89  CB        67.5790   37.6890   45.3210 C.3   212  ASP212      0.1436
     90  CG        67.9790   37.4960   46.7750 C.2   212  ASP212      0.3671
     91  OD1       67.8130   36.3800   47.3030 O.co2 212  ASP212     -0.2456
     92  OD2       68.4620   38.4560   47.3870 O.co2 212  ASP212     -0.2456
     93  N         66.1280   40.7460   48.0060 N.3   214  SER214     -0.1202
     94  CA        66.9560   41.9410   48.1540 C.3   214  SER214      0.2020
     95  C         66.7760   42.9350   46.9970 C.2   214  SER214      0.2619
     96  O         67.0420   44.1260   47.1500 O.2   214  SER214     -0.2717
     97  CB        68.4350   41.5460   48.3060 C.3   214  SER214      0.2103
     98  OG        68.9480   40.9910   47.1050 O.3   214  SER214     -0.2182
     99  N         66.3210   42.4490   45.8490 N.am  215  GLY215     -0.1956
    100  CA        66.1110   43.3240   44.7040 C.3   215  GLY215      0.1869
    101  C         64.8540   44.1730   44.8300 C.2   215  GLY215      0.2309
    102  O         64.6630   45.1200   44.0600 O.2   215  GLY215     -0.2863
    103  N         61.8300   43.6060   44.0000 N.3   217  GLN217     -0.1245
    104  CA        60.9760   43.5680   42.8150 C.3   217  GLN217      0.1566
    105  C         60.3240   42.1910   42.6620 C.2   217  GLN217      0.2260
    106  O         60.9950   41.2100   42.3350 O.2   217  GLN217     -0.2867
    107  CB        61.8110   43.8760   41.5770 C.3   217  GLN217      0.0367
    108  CG        62.1990   45.3380   41.4190 C.3   217  GLN217      0.0905
    109  CD        61.0290   46.2010   40.9880 C.2   217  GLN217      0.2608
    110  OE1       61.2010   47.3740   40.6660 O.2   217  GLN217     -0.2717
    111  NE2       59.8220   45.6180   40.9820 N.am  217  GLN217     -0.0878
    112  N         60.5220   40.3900   39.2480 N.3   220  ALA220     -0.1245
    113  CA        61.7780   39.8250   38.7900 C.3   220  ALA220      0.1562
    114  C         61.6290   38.3120   38.8310 C.2   220  ALA220      0.2260
    115  O         62.1790   37.6540   39.7020 O.2   220  ALA220     -0.2867
    116  CB        62.9190   40.2950   39.6890 C.3   220  ALA220      0.0290
@<TRIPOS>BOND
     1    48    49    1
     2    49    50    1
     3    49    52    1
     4    70    69    2
     5    50    51    2
     6     2     5    1
     7     2     1    1
     8     2     3    1
     9     5     6    1
    10    19    18    2
    11     3     4    2
    12    69    68    1
    13    11    12    1
    14    18    17    1
    15    52    53    1
    16    62    61    2
    17    59    60    1
    18     6     7   ar
    19     6     8   ar
    20    12    13    1
    21    12    15    1
    22    68    67    1
    23    68    71    1
    24    54    53   ar
    25    54    56   ar
    26    53    55   ar
    27     7     9   ar
    28    73    75   ar
    29    73    72   ar
    30    17    16    1
    31    17    20    1
    32    13    14    2
    33    13    16   am
    34    61    60    1
    35    60    63    1
    36    71    72    1
    37    56    58   ar
    38     8    10   ar
    39    75    76   ar
    40    55    57   ar
    41    65    64    2
    42    72    74   ar
    43    63    64    1
    44     9    10   ar
    45    20    21    1
    46    58    57   ar
    47    64    66   am
    48    23    21   ar
    49   113   114    1
    50   113   112    1
    51   113   116    1
    52   114   115    2
    53    76    74   ar
    54    76    78   ar
    55    21    22   ar
    56    74    77   ar
    57    35    34    2
    58    33    34    1
    59    33    32    1
    60    78    80   ar
    61    34    36   am
    62    77    79   ar
    63   110   109    2
    64    31    30    2
    65    81    82    1
    66   111   109   am
    67   109   108    1
    68    32    30   am
    69    80    79   ar
    70    38    39    2
    71    38    37    1
    72    30    29    1
    73    36    37    1
    74   108   107    1
    75   107   104    1
    76    82    83    1
    77    37    40    1
    78   106   105    2
    79    29    28    1
    80   105   104    1
    81   104   103    1
    82    42    44   ar
    83    42    41   ar
    84    83    85   am
    85    83    84    2
    86    40    41    1
    87    44    46   ar
    88    28    26   am
    89    41    43   ar
    90    85    86    1
    91    27    26    2
    92    26    25    1
    93   102   101    2
    94    46    47    1
    95    46    45   ar
    96    43    45   ar
    97   100   101    1
    98   100    99    1
    99    25    24    1
   100    86    89    1
   101    86    87    1
   102    88    87    2
   103    89    90    1
   104    99    95   am
   105    90    91   ar
   106    90    92   ar
   107    95    96    2
   108    95    94    1
   109    98    97    1
   110    93    94    1
   111    94    97    1
