@<TRIPOS>MOLECULE
tmp/2e53A02.pdb
 100 94 0 0 0
SMALL
GASTEIGER

@<TRIPOS>ATOM
      1  N        135.0360    7.5640    4.7660 N.3    84  HIS84      -0.1241
      2  CA       133.7460    7.8050    5.3690 C.3    84  HIS84       0.1621
      3  C        132.8400    6.5620    5.4480 C.2    84  HIS84       0.2264
      4  O        132.5520    5.9020    4.4270 O.2    84  HIS84      -0.2867
      5  CB       133.0400    8.9100    4.5920 C.3    84  HIS84       0.0745
      6  CG       133.0480    8.6990    3.1170 C.ar   84  HIS84       0.0817
      7  ND1      133.6000    9.6070    2.2410 N.ar   84  HIS84      -0.2268
      8  CD2      132.5760    7.6850    2.3520 C.ar   84  HIS84       0.1154
      9  CE1      133.4650    9.1650    1.0030 C.ar   84  HIS84       0.1986
     10  NE2      132.8470    8.0000    1.0430 N.ar   84  HIS84      -0.2212
     11  N        129.3870    4.3510    5.8100 N.3    86  ALA86      -0.1231
     12  CA       128.0720    4.5710    5.2090 C.3    86  ALA86       0.1694
     13  C        127.2670    3.2840    5.2790 C.2    86  ALA86       0.2592
     14  O        127.8580    2.2050    5.3470 O.2    86  ALA86      -0.2718
     15  CB       128.2450    4.9950    3.7560 C.3    86  ALA86       0.0304
     16  N        125.9340    3.3630    5.2670 N.am   87  ASP87      -0.1974
     17  CA       125.1650    4.6160    5.2070 C.3    87  ASP87       0.1709
     18  C        124.3220    4.8470    6.4730 C.2    87  ASP87       0.2293
     19  O        124.0030    5.9830    6.8350 O.2    87  ASP87      -0.2864
     20  CB       124.2110    4.6090    3.9960 C.3    87  ASP87       0.1436
     21  CG       124.8360    5.2240    2.7460 C.2    87  ASP87       0.3671
     22  OD1      125.3160    4.4520    1.8760 O.co2  87  ASP87      -0.2456
     23  OD2      124.8560    6.4730    2.6490 O.co2  87  ASP87      -0.2456
     24  N        122.2040    2.9610   -0.5020 N.3   104  GLY104     -0.1210
     25  CA       122.8960    4.1860   -0.1430 C.3   104  GLY104      0.1956
     26  C        122.1490    5.0480    0.8600 C.2   104  GLY104      0.2612
     27  O        121.5790    4.5340    1.8450 O.2   104  GLY104     -0.2717
     28  N        122.1330    6.3570    0.6070 N.am  105  GLY105     -0.1956
     29  CA       121.4700    7.3190    1.4820 C.3   105  GLY105      0.1869
     30  C        119.9870    7.1470    1.5740 C.2   105  GLY105      0.2309
     31  O        119.3540    7.8420    2.3570 O.2   105  GLY105     -0.2863
     32  N        126.2730    8.7030    7.0680 N.3   126  PHE126     -0.1241
     33  CA       126.9080    9.3290    5.9230 C.3   126  PHE126      0.1605
     34  C        126.2110   10.6290    5.5640 C.2   126  PHE126      0.2264
     35  O        124.9800   10.6800    5.4470 O.2   126  PHE126     -0.2867
     36  CB       126.8740    8.4220    4.7120 C.3   126  PHE126      0.0534
     37  CG       127.5290    9.0290    3.5000 C.ar  126  PHE126     -0.0203
     38  CD1      128.9210    8.9920    3.3530 C.ar  126  PHE126     -0.0042
     39  CD2      126.7610    9.6480    2.5140 C.ar  126  PHE126     -0.0042
     40  CE1      129.5350    9.5620    2.2340 C.ar  126  PHE126     -0.0003
     41  CE2      127.3660   10.2210    1.3930 C.ar  126  PHE126     -0.0003
     42  CZ       128.7450   10.1760    1.2530 C.ar  126  PHE126     -0.0000
     43  N        124.8620   12.9870    3.1720 N.3   128  ASN128     -0.1240
     44  CA       124.4590   13.2000    1.7900 C.3   128  ASN128      0.1653
     45  C        124.2770   14.7100    1.5970 C.2   128  ASN128      0.2266
     46  O        124.4770   15.4960    2.5270 O.2   128  ASN128     -0.2867
     47  CB       123.1520   12.4830    1.4870 C.3   128  ASN128      0.1155
     48  CG       123.3410   10.9900    1.2060 C.2   128  ASN128      0.2627
     49  OD1      123.1850   10.1520    2.1000 O.2   128  ASN128     -0.2716
     50  ND2      123.6690   10.6520   -0.0400 N.am  128  ASN128     -0.0877
     51  N        121.5950   16.3750    1.2490 N.3   130  TRP130     -0.1241
     52  CA       120.4430   16.8440    2.0160 C.3   130  TRP130      0.1605
     53  C        120.5970   16.7000    3.5350 C.2   130  TRP130      0.2264
     54  O        119.6780   17.0610    4.2750 O.2   130  TRP130     -0.2867
     55  CB       119.2080   16.0700    1.5730 C.3   130  TRP130      0.0550
     56  CG       119.3770   14.5870    1.7190 C.ar  130  TRP130      0.0003
     57  CD1      119.3390   13.8620    2.8850 C.ar  130  TRP130      0.0946
     58  CD2      119.6660   13.6450    0.6730 C.ar  130  TRP130      0.0152
     59  NE1      119.5890   12.5270    2.6260 N.ar  130  TRP130     -0.2442
     60  CE2      119.7890   12.3680    1.2790 C.ar  130  TRP130      0.0810
     61  CE3      119.8270   13.7530   -0.7130 C.ar  130  TRP130      0.0012
     62  CZ2      120.0660   11.2110    0.5390 C.ar  130  TRP130      0.0191
     63  CZ3      120.1040   12.5950   -1.4530 C.ar  130  TRP130      0.0001
     64  CH2      120.2200   11.3460   -0.8250 C.ar  130  TRP130      0.0015
     65  N        127.9180    1.7310    1.6630 N.3   211  GLY211     -0.1210
     66  CA       128.3000    2.5560    0.5300 C.3   211  GLY211      0.1956
     67  C        127.8390    2.1240   -0.8450 C.2   211  GLY211      0.2611
     68  O        127.9570    0.9580   -1.2080 O.2   211  GLY211     -0.2717
     69  N        127.3070    3.0770   -1.6070 N.am  212  ASP212     -0.1973
     70  CA       126.8630    2.8260   -2.9680 C.3   212  ASP212      0.1709
     71  C        128.1050    2.8450   -3.8860 C.2   212  ASP212      0.2293
     72  O        129.0050    3.6740   -3.7120 O.2   212  ASP212     -0.2864
     73  CB       125.8910    3.9120   -3.4190 C.3   212  ASP212      0.1436
     74  CG       125.2420    3.5780   -4.7430 C.2   212  ASP212      0.3671
     75  OD1      124.3650    2.6750   -4.7690 O.co2 212  ASP212     -0.2456
     76  OD2      125.6180    4.1990   -5.7600 O.co2 212  ASP212     -0.2456
     77  N        128.6160    4.0170   -6.7460 N.3   214  SER214     -0.1202
     78  CA       128.8110    5.3060   -7.4010 C.3   214  SER214      0.2020
     79  C        129.7450    6.2220   -6.6090 C.2   214  SER214      0.2619
     80  O        130.3020    7.1690   -7.1630 O.2   214  SER214     -0.2717
     81  CB       127.4610    5.9970   -7.6140 C.3   214  SER214      0.2103
     82  OG       126.8530    6.3500   -6.3880 O.3   214  SER214     -0.2182
     83  N        129.9080    5.9390   -5.3140 N.am  215  GLY215     -0.1956
     84  CA       130.7900    6.7330   -4.4760 C.3   215  GLY215      0.1869
     85  C        132.2420    6.3500   -4.6970 C.2   215  GLY215      0.2309
     86  O        133.1540    7.0750   -4.2920 O.2   215  GLY215     -0.2863
     87  N        134.0970    4.2010   -3.2990 N.3   217  GLN217     -0.1245
     88  CA       134.8570    3.9930   -2.0710 C.3   217  GLN217      0.1566
     89  C        134.3980    2.7060   -1.4050 C.2   217  GLN217      0.2260
     90  O        133.3040    2.6470   -0.8490 O.2   217  GLN217     -0.2867
     91  CB       134.6680    5.1650   -1.1080 C.3   217  GLN217      0.0367
     92  CG       135.3060    6.4600   -1.5510 C.3   217  GLN217      0.0905
     93  CD       136.7990    6.3170   -1.7950 C.2   217  GLN217      0.2608
     94  OE1      137.5290    5.7760   -0.9710 O.2   217  GLN217     -0.2717
     95  NE2      137.2580    6.8100   -2.9330 N.am  217  GLN217     -0.0878
     96  N        133.4490    2.7240    2.3100 N.3   220  ALA220     -0.1245
     97  CA       132.2070    3.3500    2.7120 C.3   220  ALA220      0.1562
     98  C        131.2800    2.2260    3.1880 C.2   220  ALA220      0.2260
     99  O        130.3250    1.8520    2.5030 O.2   220  ALA220     -0.2867
    100  CB       131.5940    4.0720    1.5460 C.3   220  ALA220      0.0290
@<TRIPOS>BOND
     1    81    78    1
     2    81    82    1
     3    78    77    1
     4    78    79    1
     5    80    79    2
     6    79    83   am
     7    76    74   ar
     8    83    84    1
     9    75    74   ar
    10    74    73    1
    11    85    84    1
    12    85    86    2
    13    71    72    2
    14    71    70    1
    15    73    70    1
    16    87    88    1
    17    70    69    1
    18    95    93   am
    19    88    89    1
    20    88    91    1
    21    93    92    1
    22    93    94    2
    23    69    67   am
    24    92    91    1
    25    63    64   ar
    26    63    61   ar
    27    89    90    2
    28    68    67    2
    29    67    66    1
    30    64    62   ar
    31    61    58   ar
    32    24    25    1
    33    25    26    1
    34    50    48   am
    35    66    65    1
    36    62    60   ar
    37    28    26   am
    38    28    29    1
    39    58    60   ar
    40    58    56   ar
    41    26    27    2
    42     9    10   ar
    43     9     7   ar
    44    10     8   ar
    45    48    47    1
    46    48    49    2
    47    51    52    1
    48    42    41   ar
    49    42    40   ar
    50    60    59   ar
    51    41    39   ar
    52    29    30    1
    53    47    44    1
    54   100    97    1
    55    55    56    1
    56    55    52    1
    57    30    31    2
    58    45    44    1
    59    45    46    2
    60    56    57   ar
    61    44    43    1
    62    22    21   ar
    63    52    53    1
    64    40    38   ar
    65     7     6   ar
    66    96    97    1
    67     8     6   ar
    68    99    98    2
    69    39    37   ar
    70    59    57   ar
    71    23    21   ar
    72    97    98    1
    73    21    20    1
    74     6     5    1
    75    38    37   ar
    76    37    36    1
    77    53    54    2
    78    15    12    1
    79    20    17    1
    80     4     3    2
    81     5     2    1
    82    36    33    1
    83     1     2    1
    84    17    16    1
    85    17    18    1
    86    12    13    1
    87    12    11    1
    88    16    13   am
    89    13    14    2
    90     2     3    1
    91    35    34    2
    92    34    33    1
    93    33    32    1
    94    18    19    2
