@<TRIPOS>MOLECULE
tmp/2e54A00.pdb
 126 119 0 0 0
SMALL
GASTEIGER

@<TRIPOS>ATOM
      1  N         28.7160   14.9350   53.0880 N.3    37  ILE37      -0.1245
      2  CA        28.0610   14.7920   51.7820 C.3    37  ILE37       0.1561
      3  C         26.9040   13.7810   51.7990 C.2    37  ILE37       0.2260
      4  O         26.9260   12.7540   51.1350 O.2    37  ILE37      -0.2867
      5  CB        29.0940   14.4170   50.7230 C.3    37  ILE37       0.0252
      6  CG1       30.2940   15.3570   50.7920 C.3    37  ILE37       0.0019
      7  CG2       28.4560   14.5840   49.3310 C.3    37  ILE37       0.0019
      8  CD1       31.3270   15.0450   49.7090 C.3    37  ILE37       0.0001
      9  N         29.7750    0.7800   48.3620 N.3    93  THR93      -0.1203
     10  CA        29.7140    2.1970   48.0350 C.3    93  THR93       0.1994
     11  C         28.6080    2.4680   47.0240 C.2    93  THR93       0.2618
     12  O         27.9960    1.5400   46.4880 O.2    93  THR93      -0.2717
     13  CB        31.0270    2.6530   47.3940 C.3    93  THR93       0.1784
     14  OG1       31.1630    2.0030   46.1230 O.3    93  THR93      -0.2211
     15  CG2       32.2210    2.2660   48.2620 C.3    93  THR93       0.0376
     16  N         28.3650    3.7480   46.7640 N.am   94  GLY94      -0.1942
     17  CA        27.3500    4.1340   45.8030 C.3    94  GLY94       0.2014
     18  C         27.7210    3.7070   44.3970 C.2    94  GLY94       0.2639
     19  O         26.8930    3.1660   43.6680 O.2    94  GLY94      -0.2714
     20  N         28.9710    3.9300   44.0070 N.am   95  THR95      -0.1950
     21  CA        29.3730    3.5480   42.6650 C.3    95  THR95       0.1897
     22  C         29.3060    2.0290   42.4980 C.2    95  THR95       0.2313
     23  O         28.9260    1.5470   41.4330 O.2    95  THR95      -0.2863
     24  CB        30.7840    4.1070   42.3150 C.3    95  THR95       0.1794
     25  OG1       31.0160    3.9630   40.9070 O.3    95  THR95      -0.2208
     26  CG2       31.8780    3.3860   43.0880 C.3    95  THR95       0.0378
     27  N         25.6920    1.0380   41.9190 N.3    98  ASN98      -0.1240
     28  CA        25.2590    1.3210   40.5580 C.3    98  ASN98       0.1653
     29  C         25.8900    0.3810   39.5380 C.2    98  ASN98       0.2266
     30  O         25.2710    0.0680   38.5170 O.2    98  ASN98      -0.2867
     31  CB        25.5230    2.7830   40.2000 C.3    98  ASN98       0.1155
     32  CG        24.5150    3.7150   40.8450 C.2    98  ASN98       0.2627
     33  OD1       23.3540    3.3470   41.0340 O.2    98  ASN98      -0.2716
     34  ND2       24.9420    4.9260   41.1700 N.am   98  ASN98      -0.0877
     35  N         24.9510   11.9910   38.1170 N.3   126  PHE126     -0.1227
     36  CA        26.1760   11.5210   38.7460 C.3   126  PHE126      0.1736
     37  C         25.8720   10.1840   39.3860 C.2   126  PHE126      0.2595
     38  O         25.0610   10.0950   40.3090 O.2   126  PHE126     -0.2718
     39  CB        26.7120   12.4710   39.8150 C.3   126  PHE126      0.0547
     40  CG        28.0660   12.0710   40.3090 C.ar  126  PHE126     -0.0202
     41  CD1       29.2010   12.3690   39.5650 C.ar  126  PHE126     -0.0042
     42  CD2       28.1990   11.2930   41.4530 C.ar  126  PHE126     -0.0042
     43  CE1       30.4540   11.8910   39.9460 C.ar  126  PHE126     -0.0003
     44  CE2       29.4510   10.8070   41.8460 C.ar  126  PHE126     -0.0003
     45  CZ        30.5770   11.1070   41.0880 C.ar  126  PHE126     -0.0000
     46  N         26.5390    9.1440   38.9020 N.am  127  HIS127     -0.1961
     47  CA        26.2990    7.8020   39.4070 C.3   127  HIS127      0.1787
     48  C         27.5310    7.1050   39.9610 C.2   127  HIS127      0.2621
     49  O         27.4350    5.9910   40.4640 O.2   127  HIS127     -0.2715
     50  CB        25.6810    6.9550   38.2910 C.3   127  HIS127      0.0785
     51  CG        24.3530    7.4620   37.8210 C.ar  127  HIS127      0.0821
     52  ND1       23.2320    7.4630   38.6230 N.ar  127  HIS127     -0.2267
     53  CD2       23.9700    8.0020   36.6390 C.ar  127  HIS127      0.1154
     54  CE1       22.2160    7.9820   37.9570 C.ar  127  HIS127      0.1986
     55  NE2       22.6370    8.3170   36.7500 N.ar  127  HIS127     -0.2212
     56  N         28.6860    7.7540   39.8810 N.am  128  GLY128     -0.1940
     57  CA        29.8830    7.1190   40.3960 C.3   128  GLY128      0.2014
     58  C         31.1100    7.2880   39.5290 C.2   128  GLY128      0.2638
     59  O         31.0120    7.6740   38.3550 O.2   128  GLY128     -0.2714
     60  N         32.2570    6.9490   40.1100 N.am  129  ARG129     -0.1977
     61  CA        33.5620    7.0990   39.4680 C.3   129  ARG129      0.1597
     62  C         34.2080    5.8480   38.8810 C.2   129  ARG129      0.2287
     63  O         35.1940    5.9650   38.1520 O.2   129  ARG129     -0.2864
     64  CB        34.5380    7.7310   40.4590 C.3   129  ARG129      0.0334
     65  CG        34.1230    9.0960   40.9680 C.3   129  ARG129      0.0492
     66  CD        34.5110   10.1910   39.9980 C.3   129  ARG129      0.2205
     67  NE        34.4220   11.5060   40.6220 N.pl3 129  ARG129     -0.0865
     68  CZ        34.9570   12.6080   40.1100 C.cat 129  ARG129      0.5346
     69  NH1       35.6180   12.5530   38.9630 N.pl3 129  ARG129      0.1354
     70  NH2       34.8400   13.7630   40.7510 N.pl3 129  ARG129      0.1354
     71  N         18.2390    9.7700   38.9260 N.3   178  GLU178     -0.1245
     72  CA        18.3310   10.1630   40.3280 C.3   178  GLU178      0.1567
     73  C         16.9920   10.8840   40.5000 C.2   178  GLU178      0.2260
     74  O         16.6940   11.8060   39.7450 O.2   178  GLU178     -0.2867
     75  CB        19.4540   11.1760   40.5560 C.3   178  GLU178      0.0388
     76  CG        20.8630   10.6610   40.3190 C.3   178  GLU178      0.1160
     77  CD        21.8470   11.8010   40.1190 C.2   178  GLU178      0.3649
     78  OE1       22.2670   12.4320   41.1140 O.co2 178  GLU178     -0.2457
     79  OE2       22.1870   12.0810   38.9490 O.co2 178  GLU178     -0.2457
     80  N         24.7970   16.1280   42.6160 N.3   183  GLU183     -0.1245
     81  CA        26.0190   16.8030   42.2000 C.3   183  GLU183      0.1567
     82  C         25.7850   17.9580   41.2330 C.2   183  GLU183      0.2260
     83  O         26.5400   18.9310   41.2400 O.2   183  GLU183     -0.2867
     84  CB        26.9920   15.7950   41.5800 C.3   183  GLU183      0.0388
     85  CG        27.4420   14.7240   42.5510 C.3   183  GLU183      0.1160
     86  CD        27.8930   15.3020   43.8770 C.2   183  GLU183      0.3649
     87  OE1       28.7990   16.1610   43.8740 O.co2 183  GLU183     -0.2457
     88  OE2       27.3380   14.8990   44.9210 O.co2 183  GLU183     -0.2457
     89  N         18.5380    5.8270   41.2970 N.3   211  ASP211     -0.1239
     90  CA        19.7480    5.9780   42.0830 C.3   211  ASP211      0.1674
     91  C         19.3950    6.9090   43.2380 C.2   211  ASP211      0.2266
     92  O         19.3080    8.1280   43.0570 O.2   211  ASP211     -0.2867
     93  CB        20.8460    6.6010   41.2190 C.3   211  ASP211      0.1410
     94  CG        22.1000    6.9270   42.0050 C.2   211  ASP211      0.3668
     95  OD1       22.0440    6.9510   43.2550 O.co2 211  ASP211     -0.2456
     96  OD2       23.1460    7.1770   41.3700 O.co2 211  ASP211     -0.2456
     97  N         21.2020    7.0770   46.0540 N.3   213  VAL213     -0.1231
     98  CA        22.3880    7.1070   46.8900 C.3   213  VAL213      0.1692
     99  C         22.4480    8.4080   47.6950 C.2   213  VAL213      0.2591
    100  O         22.8090    8.3910   48.8710 O.2   213  VAL213     -0.2718
    101  CB        23.6600    6.9580   46.0290 C.3   213  VAL213      0.0266
    102  CG1       24.9030    7.2580   46.8570 C.3   213  VAL213      0.0020
    103  CG2       23.7260    5.5440   45.4720 C.3   213  VAL213      0.0020
    104  N         22.0810    9.5280   47.0750 N.am  214  GLN214     -0.1979
    105  CA        22.1200   10.8050   47.7810 C.3   214  GLN214      0.1601
    106  C         20.7710   11.2540   48.3490 C.2   214  GLN214      0.2287
    107  O         20.7170   11.8000   49.4500 O.2   214  GLN214     -0.2864
    108  CB        22.6930   11.9060   46.8710 C.3   214  GLN214      0.0394
    109  CG        22.8640   13.2490   47.5920 C.3   214  GLN214      0.0908
    110  CD        23.7540   14.2430   46.8530 C.2   214  GLN214      0.2608
    111  OE1       23.7800   15.4280   47.1870 O.2   214  GLN214     -0.2717
    112  NE2       24.4960   13.7630   45.8610 N.am  214  GLN214     -0.0878
    113  N         23.1740    4.0670   49.2620 N.3   239  ALA239     -0.1231
    114  CA        24.4860    4.0450   49.8930 C.3   239  ALA239      0.1694
    115  C         24.5210    5.2390   50.8300 C.2   239  ALA239      0.2591
    116  O         23.5190    5.5350   51.4700 O.2   239  ALA239     -0.2718
    117  CB        25.5980    4.1420   48.8440 C.3   239  ALA239      0.0304
    118  N         25.6570    5.9260   50.8950 N.am  240  LYS240     -0.1980
    119  CA        25.8150    7.0940   51.7600 C.3   240  LYS240      0.1596
    120  C         25.1650    6.9260   53.1340 C.2   240  LYS240      0.2287
    121  O         25.7140    6.2460   53.9990 O.2   240  LYS240     -0.2864
    122  CB        25.2730    8.3550   51.0660 C.3   240  LYS240      0.0298
    123  CG        26.1740    8.9000   49.9550 C.3   240  LYS240      0.0038
    124  CD        25.6310   10.2130   49.4030 C.3   240  LYS240      0.0206
    125  CE        26.4800   10.7440   48.2620 C.3   240  LYS240      0.1093
    126  NZ        27.8210   11.1880   48.7080 N.3   240  LYS240     -0.1314
@<TRIPOS>BOND
     1    53    55   ar
     2    53    51   ar
     3    55    54   ar
     4    51    50    1
     5    51    52   ar
     6    54    52   ar
     7    35    36    1
     8    63    62    2
     9    50    47    1
    10    59    58    2
    11    30    29    2
    12    36    37    1
    13    36    39    1
    14    62    61    1
    15    46    37   am
    16    46    47    1
    17    71    72    1
    18    79    77   ar
    19    69    68    1
    20    37    38    2
    21    47    48    1
    22    61    60    1
    23    61    64    1
    24    58    60   am
    25    58    57    1
    26    29    28    1
    27    41    43   ar
    28    41    40   ar
    29    74    73    2
    30    39    40    1
    31    56    48   am
    32    56    57    1
    33    43    45   ar
    34    48    49    2
    35    66    67    1
    36    66    65    1
    37    68    67    2
    38    68    70    1
    39    77    76    1
    40    77    78   ar
    41    31    28    1
    42    31    32    1
    43    40    42   ar
    44    76    75    1
    45    72    73    1
    46    72    75    1
    47    64    65    1
    48    28    27    1
    49    32    33    2
    50    32    34   am
    51    25    24    1
    52    45    44   ar
    53    93    94    1
    54    93    90    1
    55    82    83    2
    56    82    81    1
    57    89    90    1
    58    96    94   ar
    59    23    22    2
    60    42    44   ar
    61    84    81    1
    62    84    85    1
    63    94    95   ar
    64    90    91    1
    65    81    80    1
    66    24    21    1
    67    24    26    1
    68    22    21    1
    69    85    86    1
    70    21    20    1
    71    92    91    2
    72    19    18    2
    73    87    86   ar
    74    86    88   ar
    75    20    18   am
    76    18    17    1
    77   103   101    1
    78    17    16    1
    79   112   110   am
    80   101   102    1
    81   101    98    1
    82    97    98    1
    83    14    13    1
    84    12    11    2
    85    16    11   am
    86   110   111    2
    87   110   109    1
    88   108   109    1
    89   108   105    1
    90    98    99    1
    91    11    10    1
    92   104    99   am
    93   104   105    1
    94    13    10    1
    95    13    15    1
    96    99   100    2
    97   105   106    1
    98    10     9    1
    99   125   126    1
   100   125   124    1
   101   106   107    2
   102   117   114    1
   103   113   114    1
   104     7     5    1
   105   124   123    1
   106     8     6    1
   107   114   115    1
   108   123   122    1
   109     5     6    1
   110     5     2    1
   111   115   118   am
   112   115   116    2
   113   118   119    1
   114   122   119    1
   115     4     3    2
   116   119   120    1
   117     2     3    1
   118     2     1    1
   119   120   121    2
