@<TRIPOS>MOLECULE
tmp/2e56A03.pdb
 130 121 0 0 0
SMALL
GASTEIGER

@<TRIPOS>ATOM
      1  N          2.5960   34.5360   12.7090 N.3    28  ILE28      -0.1245
      2  CA         2.3410   33.7560   13.8980 C.3    28  ILE28       0.1561
      3  C          3.6920   33.3120   14.4480 C.2    28  ILE28       0.2260
      4  O          4.6510   33.1300   13.6920 O.2    28  ILE28      -0.2867
      5  CB         1.3710   32.5500   13.6470 C.3    28  ILE28       0.0252
      6  CG1        0.9540   31.9100   14.9750 C.3    28  ILE28       0.0019
      7  CG2        2.0170   31.4990   12.7130 C.3    28  ILE28       0.0019
      8  CD1       -0.2910   30.9590   14.8860 C.3    28  ILE28       0.0001
      9  N          5.4450   30.3530   16.8100 N.3    30  ILE30      -0.1245
     10  CA         5.1540   29.0200   17.3010 C.3    30  ILE30       0.1561
     11  C          6.4210   28.5300   17.9590 C.2    30  ILE30       0.2260
     12  O          7.5180   28.6350   17.3870 O.2    30  ILE30      -0.2867
     13  CB         4.8170   28.0810   16.1240 C.3    30  ILE30       0.0252
     14  CG1        3.4760   28.4510   15.5100 C.3    30  ILE30       0.0019
     15  CG2        4.7860   26.6320   16.5530 C.3    30  ILE30       0.0019
     16  CD1        3.3870   28.0010   14.0700 C.3    30  ILE30       0.0001
     17  N          3.2080   23.6040   23.6000 N.3    45  LEU45      -0.1245
     18  CA         3.1770   24.4280   22.4210 C.3    45  LEU45       0.1561
     19  C          2.8610   25.8600   22.8320 C.2    45  LEU45       0.2260
     20  O          1.8140   26.1120   23.4390 O.2    45  LEU45      -0.2867
     21  CB         2.1130   23.8860   21.4800 C.3    45  LEU45       0.0270
     22  CG         1.7400   24.7280   20.2600 C.3    45  LEU45       0.0019
     23  CD1        2.9210   24.7890   19.3020 C.3    45  LEU45       0.0001
     24  CD2        0.5030   24.1130   19.6250 C.3    45  LEU45       0.0001
     25  N          2.0150   29.5960   21.4390 N.3    47  ILE47      -0.1245
     26  CA         1.5200   30.3740   20.3190 C.3    47  ILE47       0.1561
     27  C          1.4740   31.8460   20.7070 C.2    47  ILE47       0.2260
     28  O          0.8860   32.1960   21.7400 O.2    47  ILE47      -0.2867
     29  CB         0.0600   29.9940   19.9900 C.3    47  ILE47       0.0252
     30  CG1       -0.0590   28.5150   19.5910 C.3    47  ILE47       0.0019
     31  CG2       -0.4640   30.8780   18.8520 C.3    47  ILE47       0.0019
     32  CD1        0.6350   28.1750   18.3040 C.3    47  ILE47       0.0001
     33  N         -9.0050   23.1520   11.9490 N.3    60  PHE60      -0.1241
     34  CA        -7.8940   22.8670   11.0240 C.3    60  PHE60       0.1605
     35  C         -8.2490   21.7530   10.0290 C.2    60  PHE60       0.2264
     36  O         -8.6070   20.6550   10.4400 O.2    60  PHE60      -0.2867
     37  CB        -6.6870   22.3360   11.8030 C.3    60  PHE60       0.0534
     38  CG        -6.0770   23.3350   12.7720 C.ar   60  PHE60      -0.0203
     39  CD1       -5.2900   22.8970   13.8230 C.ar   60  PHE60      -0.0042
     40  CD2       -6.2900   24.6910   12.6270 C.ar   60  PHE60      -0.0042
     41  CE1       -4.6960   23.7960   14.6950 C.ar   60  PHE60      -0.0003
     42  CE2       -5.7170   25.5950   13.5140 C.ar   60  PHE60      -0.0003
     43  CZ        -4.9340   25.1380   14.5540 C.ar   60  PHE60      -0.0000
     44  N         -6.1400   19.2020    7.8530 N.3    62  LEU62      -0.1245
     45  CA        -4.7690   18.7400    7.8440 C.3    62  LEU62       0.1561
     46  C         -4.4830   17.9200    6.6040 C.2    62  LEU62       0.2260
     47  O         -5.0710   16.8590    6.3810 O.2    62  LEU62      -0.2867
     48  CB        -4.4840   17.9090    9.0910 C.3    62  LEU62       0.0270
     49  CG        -4.7580   18.6550   10.4030 C.3    62  LEU62       0.0019
     50  CD1       -4.7810   17.6710   11.5570 C.3    62  LEU62       0.0001
     51  CD2       -3.6990   19.7250   10.6240 C.3    62  LEU62       0.0001
     52  N         -9.7200   18.8330   12.1990 N.3    76  GLU76      -0.1231
     53  CA        -9.6260   18.8100   13.6430 C.3    76  GLU76       0.1699
     54  C        -10.2850   20.0340   14.2370 C.2    76  GLU76       0.2592
     55  O         -9.8050   21.1590   14.0400 O.2    76  GLU76      -0.2718
     56  CB        -8.1660   18.7200   14.1000 C.3    76  GLU76       0.0402
     57  CG        -7.4930   17.4130   13.7520 C.3    76  GLU76       0.1161
     58  CD        -8.2480   16.2260   14.2890 C.2    76  GLU76       0.3649
     59  OE1       -9.2120   16.4390   15.0520 O.co2  76  GLU76      -0.2457
     60  OE2       -7.8750   15.0800   13.9580 O.co2  76  GLU76      -0.2457
     61  N        -11.4010   19.8320   14.9430 N.am   77  VAL77      -0.1966
     62  CA       -12.0300   20.9510   15.6630 C.3    77  VAL77       0.1727
     63  C        -11.2240   21.3090   16.9170 C.2    77  VAL77       0.2616
     64  O        -10.8150   20.4330   17.6880 O.2    77  VAL77      -0.2715
     65  CB       -13.5240   20.7260   15.9740 C.3    77  VAL77       0.0290
     66  CG1      -14.1010   21.9380   16.7140 C.3    77  VAL77       0.0023
     67  CG2      -14.3010   20.4920   14.6780 C.3    77  VAL77       0.0023
     68  N        -10.9310   22.5980   17.0520 N.am   78  ILE78      -0.1977
     69  CA       -10.0840   23.1300   18.1240 C.3    78  ILE78       0.1596
     70  C        -10.9530   23.8750   19.1640 C.2    78  ILE78       0.2287
     71  O        -10.7990   23.6860   20.3710 O.2    78  ILE78      -0.2864
     72  CB        -9.0320   24.1110   17.5380 C.3    78  ILE78       0.0276
     73  CG1       -8.2380   23.4300   16.4260 C.3    78  ILE78       0.0022
     74  CG2       -8.0470   24.5830   18.6000 C.3    78  ILE78       0.0022
     75  CD1       -7.4960   22.1750   16.9040 C.3    78  ILE78       0.0001
     76  N        -10.1690   26.1780   24.9840 N.3    86  TYR86      -0.1241
     77  CA        -9.0120   26.9420   25.3670 C.3    86  TYR86       0.1605
     78  C         -9.4470   28.3860   25.5260 C.2    86  TYR86       0.2264
     79  O        -10.3820   28.8340   24.8750 O.2    86  TYR86      -0.2867
     80  CB        -7.9280   26.8450   24.2970 C.3    86  TYR86       0.0534
     81  CG        -7.3790   25.4530   24.0860 C.ar   86  TYR86      -0.0201
     82  CD1       -7.7740   24.6920   22.9920 C.ar   86  TYR86      -0.0009
     83  CD2       -6.4670   24.9020   24.9770 C.ar   86  TYR86      -0.0009
     84  CE1       -7.2650   23.4320   22.7850 C.ar   86  TYR86       0.0417
     85  CE2       -5.9520   23.6410   24.7730 C.ar   86  TYR86       0.0417
     86  CZ        -6.3550   22.9130   23.6820 C.ar   86  TYR86       0.1957
     87  OH        -5.8560   21.6540   23.4800 O.3    86  TYR86      -0.2866
     88  N          2.9880   18.7100    6.6190 N.3   117  CYS117     -0.1235
     89  CA         1.6150   18.9060    7.0470 C.3   117  CYS117      0.1677
     90  C          1.2370   20.3380    6.7560 C.2   117  CYS117      0.2270
     91  O          1.8630   21.2980    7.2610 O.2   117  CYS117     -0.2867
     92  CB         1.4230   18.6260    8.5350 C.3   117  CYS117      0.0956
     93  SG        -0.3120   18.7840    9.0460 S.3   117  CYS117     -0.0801
     94  N         -1.5020   23.0340    7.4300 N.3   119  VAL119     -0.1245
     95  CA        -2.5370   23.3960    8.3800 C.3   119  VAL119      0.1561
     96  C         -3.3470   24.5740    7.8360 C.2   119  VAL119      0.2260
     97  O         -2.8730   25.7050    7.7740 O.2   119  VAL119     -0.2867
     98  CB        -1.9260   23.7820    9.7280 C.3   119  VAL119      0.0252
     99  CG1       -3.0090   24.1640   10.7120 C.3   119  VAL119      0.0019
    100  CG2       -1.0850   22.6100   10.2830 C.3   119  VAL119      0.0019
    101  N         -5.3870   31.4250    8.6410 N.3   131  PHE131     -0.1241
    102  CA        -4.0080   31.3040    8.2060 C.3   131  PHE131      0.1605
    103  C         -3.8180   29.9680    7.5060 C.2   131  PHE131      0.2264
    104  O         -4.7160   29.1190    7.5050 O.2   131  PHE131     -0.2867
    105  CB        -3.0110   31.5090    9.3780 C.3   131  PHE131      0.0534
    106  CG        -3.0680   30.4460   10.4610 C.ar  131  PHE131     -0.0203
    107  CD1       -3.5050   30.7610   11.7400 C.ar  131  PHE131     -0.0042
    108  CD2       -2.6020   29.1610   10.2290 C.ar  131  PHE131     -0.0042
    109  CE1       -3.5230   29.7920   12.7450 C.ar  131  PHE131     -0.0003
    110  CE2       -2.6150   28.1870   11.2250 C.ar  131  PHE131     -0.0003
    111  CZ        -3.0810   28.4980   12.4860 C.ar  131  PHE131     -0.0000
    112  N         -0.4920   27.2560    7.0320 N.3   133  LEU133     -0.1245
    113  CA         0.9110   27.0430    7.2840 C.3   133  LEU133      0.1561
    114  C          1.2800   25.7140    6.6780 C.2   133  LEU133      0.2260
    115  O          0.5210   24.7380    6.7580 O.2   133  LEU133     -0.2867
    116  CB         1.2260   27.0470    8.7950 C.3   133  LEU133      0.0270
    117  CG         0.8760   28.3370    9.5680 C.3   133  LEU133      0.0019
    118  CD1        0.9750   28.1120   11.0670 C.3   133  LEU133      0.0001
    119  CD2        1.7420   29.5280    9.1630 C.3   133  LEU133      0.0001
    120  N          4.0590   23.0020    7.1860 N.3   135  PHE135     -0.1241
    121  CA         5.1800   22.5040    8.0120 C.3   135  PHE135      0.1605
    122  C          5.9490   21.4300    7.2720 C.2   135  PHE135      0.2264
    123  O          5.3780   20.5370    6.6320 O.2   135  PHE135     -0.2867
    124  CB         4.6880   21.9170    9.3550 C.3   135  PHE135      0.0534
    125  CG         4.1320   22.9530   10.3140 C.ar  135  PHE135     -0.0203
    126  CD1        2.7660   23.2080   10.3750 C.ar  135  PHE135     -0.0042
    127  CD2        4.9720   23.6150   11.2030 C.ar  135  PHE135     -0.0042
    128  CE1        2.2520   24.1520   11.2560 C.ar  135  PHE135     -0.0003
    129  CE2        4.4610   24.5780   12.0940 C.ar  135  PHE135     -0.0003
    130  CZ         3.1150   24.8550   12.1100 C.ar  135  PHE135     -0.0000
@<TRIPOS>BOND
     1    47    46    2
     2    46    45    1
     3    88    89    1
     4   123   122    2
     5   114   115    2
     6   114   113    1
     7    90    89    1
     8    90    91    2
     9   112   113    1
    10    89    92    1
    11   120   121    1
    12   122   121    1
    13   113   116    1
    14    94    95    1
    15   104   103    2
    16   103   102    1
    17    97    96    2
    18    96    95    1
    19    45    44    1
    20    45    48    1
    21   121   124    1
    22   102   101    1
    23   102   105    1
    24    95    98    1
    25    92    93    1
    26   116   117    1
    27    48    49    1
    28   119   117    1
    29   124   125    1
    30   105   106    1
    31   117   118    1
    32    98   100    1
    33    98    99    1
    34    35    36    2
    35    35    34    1
    36   108   106   ar
    37   108   110   ar
    38   125   126   ar
    39   125   127   ar
    40   126   128   ar
    41    49    51    1
    42    49    50    1
    43   106   107   ar
    44    34    37    1
    45    34    33    1
    46   127   129   ar
    47   110   111   ar
    48   128   130   ar
    49   107   109   ar
    50    37    38    1
    51   129   130   ar
    52    52    53    1
    53   111   109   ar
    54    40    38   ar
    55    40    42   ar
    56     1     2    1
    57     7     5    1
    58    38    39   ar
    59    42    43   ar
    60    53    56    1
    61    53    54    1
    62     5     2    1
    63     5     6    1
    64     4     3    2
    65    57    56    1
    66    57    58    1
    67    39    41   ar
    68     2     3    1
    69    60    58   ar
    70    55    54    2
    71    16    14    1
    72    54    61   am
    73    58    59   ar
    74    43    41   ar
    75    67    65    1
    76     8     6    1
    77    61    62    1
    78    14    13    1
    79    62    65    1
    80    62    63    1
    81    65    66    1
    82    13    15    1
    83    13    10    1
    84    73    75    1
    85    73    72    1
    86     9    10    1
    87    63    68   am
    88    63    64    2
    89    68    69    1
    90    10    11    1
    91    12    11    2
    92    72    69    1
    93    72    74    1
    94    69    70    1
    95    32    30    1
    96    31    29    1
    97    70    71    2
    98    23    22    1
    99    30    29    1
   100    24    22    1
   101    29    26    1
   102    22    21    1
   103    26    27    1
   104    26    25    1
   105    27    28    2
   106    21    18    1
   107    18    19    1
   108    18    17    1
   109    84    82   ar
   110    84    86   ar
   111    19    20    2
   112    82    81   ar
   113    87    86    1
   114    86    85   ar
   115    81    80    1
   116    81    83   ar
   117    80    77    1
   118    85    83   ar
   119    79    78    2
   120    76    77    1
   121    77    78    1
