@<TRIPOS>MOLECULE
tmp/2e56A02.pdb
 151 144 0 0 0
SMALL
GASTEIGER

@<TRIPOS>ATOM
      1  N          2.5960   34.5360   12.7090 N.3    28  ILE28      -0.1245
      2  CA         2.3410   33.7560   13.8980 C.3    28  ILE28       0.1561
      3  C          3.6920   33.3120   14.4480 C.2    28  ILE28       0.2260
      4  O          4.6510   33.1300   13.6920 O.2    28  ILE28      -0.2867
      5  CB         1.3710   32.5500   13.6470 C.3    28  ILE28       0.0252
      6  CG1        0.9540   31.9100   14.9750 C.3    28  ILE28       0.0019
      7  CG2        2.0170   31.4990   12.7130 C.3    28  ILE28       0.0019
      8  CD1       -0.2910   30.9590   14.8860 C.3    28  ILE28       0.0001
      9  N          3.2080   23.6040   23.6000 N.3    45  LEU45      -0.1245
     10  CA         3.1770   24.4280   22.4210 C.3    45  LEU45       0.1561
     11  C          2.8610   25.8600   22.8320 C.2    45  LEU45       0.2260
     12  O          1.8140   26.1120   23.4390 O.2    45  LEU45      -0.2867
     13  CB         2.1130   23.8860   21.4800 C.3    45  LEU45       0.0270
     14  CG         1.7400   24.7280   20.2600 C.3    45  LEU45       0.0019
     15  CD1        2.9210   24.7890   19.3020 C.3    45  LEU45       0.0001
     16  CD2        0.5030   24.1130   19.6250 C.3    45  LEU45       0.0001
     17  N          2.0150   29.5960   21.4390 N.3    47  ILE47      -0.1245
     18  CA         1.5200   30.3740   20.3190 C.3    47  ILE47       0.1561
     19  C          1.4740   31.8460   20.7070 C.2    47  ILE47       0.2260
     20  O          0.8860   32.1960   21.7400 O.2    47  ILE47      -0.2867
     21  CB         0.0600   29.9940   19.9900 C.3    47  ILE47       0.0252
     22  CG1       -0.0590   28.5150   19.5910 C.3    47  ILE47       0.0019
     23  CG2       -0.4640   30.8780   18.8520 C.3    47  ILE47       0.0019
     24  CD1        0.6350   28.1750   18.3040 C.3    47  ILE47       0.0001
     25  N          0.0140   35.0470   18.7430 N.3    49  TYR49      -0.1241
     26  CA        -0.7250   35.3680   17.5240 C.3    49  TYR49       0.1605
     27  C         -1.7120   36.5030   17.7690 C.2    49  TYR49       0.2264
     28  O         -2.4870   36.4410   18.7080 O.2    49  TYR49      -0.2867
     29  CB        -1.5260   34.1390   17.0860 C.3    49  TYR49       0.0534
     30  CG        -2.1930   34.2580   15.7310 C.ar   49  TYR49      -0.0201
     31  CD1       -1.4970   34.7730   14.6430 C.ar   49  TYR49      -0.0009
     32  CD2       -3.5000   33.7990   15.5260 C.ar   49  TYR49      -0.0009
     33  CE1       -2.0860   34.8700   13.3960 C.ar   49  TYR49       0.0417
     34  CE2       -4.1000   33.9030   14.2840 C.ar   49  TYR49       0.0417
     35  CZ        -3.3890   34.4360   13.2230 C.ar   49  TYR49       0.1957
     36  OH        -3.9550   34.5130   11.9610 O.3    49  TYR49      -0.2866
     37  N        -11.4490   33.9490   16.8710 N.3    55  LEU55      -0.1245
     38  CA       -11.0340   32.5510   16.9080 C.3    55  LEU55       0.1561
     39  C        -12.1730   31.5870   17.1460 C.2    55  LEU55       0.2260
     40  O        -11.9690   30.3720   17.1770 O.2    55  LEU55      -0.2867
     41  CB        -9.9740   32.3290   17.9870 C.3    55  LEU55       0.0270
     42  CG        -8.5430   32.3330   17.4670 C.3    55  LEU55       0.0019
     43  CD1       -8.4000   33.1330   16.1710 C.3    55  LEU55       0.0001
     44  CD2       -7.5860   32.8250   18.5350 C.3    55  LEU55       0.0001
     45  N        -12.9500   28.0370   15.5100 N.3    58  LEU58      -0.1245
     46  CA       -11.6510   27.6450   14.9270 C.3    58  LEU58       0.1561
     47  C        -11.5290   26.1490   14.6190 C.2    58  LEU58       0.2260
     48  O        -11.7300   25.3370   15.4980 O.2    58  LEU58      -0.2867
     49  CB       -10.5360   27.9850   15.9290 C.3    58  LEU58       0.0270
     50  CG        -9.1210   28.3660   15.4570 C.3    58  LEU58       0.0019
     51  CD1       -8.0740   27.8140   16.4180 C.3    58  LEU58       0.0001
     52  CD2       -8.8360   27.9570   14.0230 C.3    58  LEU58       0.0001
     53  N         -9.0050   23.1520   11.9490 N.3    60  PHE60      -0.1241
     54  CA        -7.8940   22.8670   11.0240 C.3    60  PHE60       0.1605
     55  C         -8.2490   21.7530   10.0290 C.2    60  PHE60       0.2264
     56  O         -8.6070   20.6550   10.4400 O.2    60  PHE60      -0.2867
     57  CB        -6.6870   22.3360   11.8030 C.3    60  PHE60       0.0534
     58  CG        -6.0770   23.3350   12.7720 C.ar   60  PHE60      -0.0203
     59  CD1       -5.2900   22.8970   13.8230 C.ar   60  PHE60      -0.0042
     60  CD2       -6.2900   24.6910   12.6270 C.ar   60  PHE60      -0.0042
     61  CE1       -4.6960   23.7960   14.6950 C.ar   60  PHE60      -0.0003
     62  CE2       -5.7170   25.5950   13.5140 C.ar   60  PHE60      -0.0003
     63  CZ        -4.9340   25.1380   14.5540 C.ar   60  PHE60      -0.0000
     64  N        -10.9310   22.5980   17.0520 N.3    78  ILE78      -0.1245
     65  CA       -10.0840   23.1300   18.1240 C.3    78  ILE78       0.1561
     66  C        -10.9530   23.8750   19.1640 C.2    78  ILE78       0.2260
     67  O        -10.7990   23.6860   20.3710 O.2    78  ILE78      -0.2867
     68  CB        -9.0320   24.1110   17.5380 C.3    78  ILE78       0.0252
     69  CG1       -8.2380   23.4300   16.4260 C.3    78  ILE78       0.0019
     70  CG2       -8.0470   24.5830   18.6000 C.3    78  ILE78       0.0019
     71  CD1       -7.4960   22.1750   16.9040 C.3    78  ILE78       0.0001
     72  N        -10.1690   26.1780   24.9840 N.3    86  TYR86      -0.1241
     73  CA        -9.0120   26.9420   25.3670 C.3    86  TYR86       0.1605
     74  C         -9.4470   28.3860   25.5260 C.2    86  TYR86       0.2264
     75  O        -10.3820   28.8340   24.8750 O.2    86  TYR86      -0.2867
     76  CB        -7.9280   26.8450   24.2970 C.3    86  TYR86       0.0534
     77  CG        -7.3790   25.4530   24.0860 C.ar   86  TYR86      -0.0201
     78  CD1       -7.7740   24.6920   22.9920 C.ar   86  TYR86      -0.0009
     79  CD2       -6.4670   24.9020   24.9770 C.ar   86  TYR86      -0.0009
     80  CE1       -7.2650   23.4320   22.7850 C.ar   86  TYR86       0.0417
     81  CE2       -5.9520   23.6410   24.7730 C.ar   86  TYR86       0.0417
     82  CZ        -6.3550   22.9130   23.6820 C.ar   86  TYR86       0.1957
     83  OH        -5.8560   21.6540   23.4800 O.3    86  TYR86      -0.2866
     84  N         -8.2200   30.8280   24.3590 N.3    88  PHE88      -0.1241
     85  CA        -7.9810   31.5780   23.1180 C.3    88  PHE88       0.1605
     86  C         -9.1810   31.5440   22.1940 C.2    88  PHE88       0.2264
     87  O         -9.3170   32.3800   21.2980 O.2    88  PHE88      -0.2867
     88  CB        -6.6730   31.1720   22.3830 C.3    88  PHE88       0.0534
     89  CG        -6.6180   29.7400   21.9270 C.ar   88  PHE88      -0.0203
     90  CD1       -5.7700   28.8360   22.5590 C.ar   88  PHE88      -0.0042
     91  CD2       -7.3250   29.3210   20.8040 C.ar   88  PHE88      -0.0042
     92  CE1       -5.6880   27.5310   22.1370 C.ar   88  PHE88      -0.0003
     93  CE2       -7.2530   28.0040   20.3690 C.ar   88  PHE88      -0.0003
     94  CZ        -6.4350   27.1020   21.0500 C.ar   88  PHE88      -0.0000
     95  N         -3.2780   36.7920   21.2580 N.3    97  VAL97      -0.1245
     96  CA        -3.2740   35.4370   21.8390 C.3    97  VAL97       0.1561
     97  C         -1.8580   35.1320   22.2590 C.2    97  VAL97       0.2260
     98  O         -0.9480   35.1880   21.4620 O.2    97  VAL97      -0.2867
     99  CB        -3.7450   34.3380   20.8490 C.3    97  VAL97       0.0252
    100  CG1       -3.5760   32.9200   21.4710 C.3    97  VAL97       0.0019
    101  CG2       -5.1900   34.5810   20.4090 C.3    97  VAL97       0.0019
    102  N         -0.0400   25.4320   25.3770 N.3   101  ILE101     -0.1231
    103  CA        -0.9750   24.2950   25.2360 C.3   101  ILE101      0.1692
    104  C         -0.2120   22.9920   25.4560 C.2   101  ILE101      0.2593
    105  O          0.8970   22.8440   24.9570 O.2   101  ILE101     -0.2718
    106  CB        -1.6070   24.2840   23.8070 C.3   101  ILE101      0.0266
    107  CG1       -2.4420   25.5470   23.5800 C.3   101  ILE101      0.0019
    108  CG2       -2.4570   23.0500   23.5760 C.3   101  ILE101      0.0020
    109  CD1       -2.3070   26.1000   22.1950 C.3   101  ILE101      0.0001
    110  N         -0.7840   22.0340   26.1880 N.am  102  SER102     -0.1938
    111  CA        -0.0940   20.7590   26.3420 C.3   102  SER102      0.2055
    112  C         -0.3400   19.9120   25.1120 C.2   102  SER102      0.2643
    113  O         -1.4120   19.9500   24.5210 O.2   102  SER102     -0.2714
    114  CB        -0.5290   19.9840   27.5980 C.3   102  SER102      0.2130
    115  OG        -0.2320   20.7030   28.7840 O.3   102  SER102     -0.2179
    116  N          0.6490   19.1180   24.7470 N.am  103  PHE103     -0.1959
    117  CA         0.4900   18.2120   23.6300 C.3   103  PHE103      0.1771
    118  C          1.1900   16.9050   23.9420 C.2   103  PHE103      0.2620
    119  O          2.1230   16.8520   24.7500 O.2   103  PHE103     -0.2715
    120  CB         1.0130   18.8380   22.3230 C.3   103  PHE103      0.0574
    121  CG         2.5000   18.8760   22.2190 C.ar  103  PHE103     -0.0200
    122  CD1        3.2120   17.7390   21.8720 C.ar  103  PHE103     -0.0042
    123  CD2        3.1960   20.0530   22.4460 C.ar  103  PHE103     -0.0042
    124  CE1        4.5710   17.7690   21.7800 C.ar  103  PHE103     -0.0003
    125  CE2        4.5720   20.0920   22.3520 C.ar  103  PHE103     -0.0003
    126  CZ         5.2640   18.9430   22.0190 C.ar  103  PHE103     -0.0000
    127  N          0.7050   15.8420   23.3120 N.am  104  SER104     -0.1950
    128  CA         1.3140   14.5310   23.3880 C.3   104  SER104      0.1924
    129  C          1.2660   13.9520   21.9760 C.2   104  SER104      0.2314
    130  O          0.1940   13.7190   21.4420 O.2   104  SER104     -0.2863
    131  CB         0.5220   13.6310   24.3510 C.3   104  SER104      0.2116
    132  OG         1.2250   12.4340   24.6210 O.3   104  SER104     -0.2180
    133  N         -8.0920   31.7970    8.3140 N.3   130  LEU130     -0.1231
    134  CA        -7.4060   32.5380    9.3410 C.3   130  LEU130      0.1693
    135  C         -5.9510   32.5990    8.9090 C.2   130  LEU130      0.2592
    136  O         -5.3750   33.6740    8.7540 O.2   130  LEU130     -0.2718
    137  CB        -7.5790   31.7940   10.6670 C.3   130  LEU130      0.0284
    138  CG        -6.9720   32.3270   11.9530 C.3   130  LEU130      0.0019
    139  CD1       -7.5300   33.7050   12.2650 C.3   130  LEU130      0.0001
    140  CD2       -7.2750   31.3300   13.0570 C.3   130  LEU130      0.0001
    141  N         -5.3870   31.4250    8.6410 N.am  131  PHE131     -0.1976
    142  CA        -4.0080   31.3040    8.2060 C.3   131  PHE131      0.1639
    143  C         -3.8180   29.9680    7.5060 C.2   131  PHE131      0.2290
    144  O         -4.7160   29.1190    7.5050 O.2   131  PHE131     -0.2864
    145  CB        -3.0110   31.5090    9.3780 C.3   131  PHE131      0.0560
    146  CG        -3.0680   30.4460   10.4610 C.ar  131  PHE131     -0.0200
    147  CD1       -3.5050   30.7610   11.7400 C.ar  131  PHE131     -0.0042
    148  CD2       -2.6020   29.1610   10.2290 C.ar  131  PHE131     -0.0042
    149  CE1       -3.5230   29.7920   12.7450 C.ar  131  PHE131     -0.0003
    150  CE2       -2.6150   28.1870   11.2250 C.ar  131  PHE131     -0.0003
    151  CZ        -3.0810   28.4980   12.4860 C.ar  131  PHE131     -0.0000
@<TRIPOS>BOND
     1   144   143    2
     2   143   142    1
     3   142   141    1
     4   142   145    1
     5   133   134    1
     6   141   135   am
     7   136   135    2
     8   135   134    1
     9   134   137    1
    10   145   146    1
    11    55    56    2
    12    55    54    1
    13   148   146   ar
    14   148   150   ar
    15   146   147   ar
    16   137   138    1
    17    54    57    1
    18    54    53    1
    19   150   151   ar
    20   147   149   ar
    21    57    58    1
    22   138   139    1
    23   138   140    1
    24    36    35    1
    25   151   149   ar
    26    60    58   ar
    27    60    62   ar
    28     1     2    1
    29     7     5    1
    30    58    59   ar
    31    35    33   ar
    32    35    34   ar
    33    33    31   ar
    34    62    63   ar
    35     5     2    1
    36     5     6    1
    37     4     3    2
    38    59    61   ar
    39     2     3    1
    40    52    50    1
    41    34    32   ar
    42    63    61   ar
    43    47    46    1
    44    47    48    2
    45    31    30   ar
    46     8     6    1
    47    46    45    1
    48    46    49    1
    49    50    49    1
    50    50    51    1
    51    32    30   ar
    52    30    29    1
    53    43    42    1
    54    69    71    1
    55    69    68    1
    56    37    38    1
    57    38    39    1
    58    38    41    1
    59    64    65    1
    60    29    26    1
    61    39    40    2
    62    42    41    1
    63    42    44    1
    64    26    27    1
    65    26    25    1
    66    68    65    1
    67    68    70    1
    68    27    28    2
    69    65    66    1
    70    24    22    1
    71    23    21    1
    72    66    67    2
    73    15    14    1
    74    22    21    1
    75    16    14    1
    76    21    18    1
    77    14    13    1
    78    18    19    1
    79    18    17    1
    80    93    91   ar
    81    93    94   ar
    82   101    99    1
    83    19    20    2
    84    91    89   ar
    85    99   100    1
    86    99    96    1
    87    94    92   ar
    88    95    96    1
    89    87    86    2
    90   130   129    2
    91    98    97    2
    92    13    10    1
    93   124   122   ar
    94   124   126   ar
    95    96    97    1
    96   122   121   ar
    97    89    88    1
    98    89    90   ar
    99   129   128    1
   100   126   125   ar
   101    92    90   ar
   102    86    85    1
   103   109   107    1
   104   121   120    1
   105   121   123   ar
   106   120   117    1
   107   125   123   ar
   108    88    85    1
   109    10    11    1
   110    10     9    1
   111    80    78   ar
   112    80    82   ar
   113    11    12    2
   114    78    77   ar
   115    85    84    1
   116   127   128    1
   117   127   118   am
   118   128   131    1
   119    83    82    1
   120   108   106    1
   121   107   106    1
   122   117   118    1
   123   117   116    1
   124    82    81   ar
   125   106   103    1
   126   118   119    2
   127    77    76    1
   128    77    79   ar
   129    76    73    1
   130   131   132    1
   131   113   112    2
   132   116   112   am
   133    81    79   ar
   134    75    74    2
   135   105   104    2
   136    72    73    1
   137   112   111    1
   138   103   102    1
   139   103   104    1
   140    73    74    1
   141   104   110   am
   142   110   111    1
   143   111   114    1
   144   114   115    1
