@<TRIPOS>MOLECULE
tmp/2e56A04.pdb
 123 114 0 0 0
SMALL
GASTEIGER

@<TRIPOS>ATOM
      1  N         11.4930   26.1840   13.4990 N.3     8  VAL8       -0.1245
      2  CA        10.8120   26.0650   14.7880 C.3     8  VAL8        0.1561
      3  C         11.7610   25.4740   15.8120 C.2     8  VAL8        0.2260
      4  O         12.0170   26.0790   16.8470 O.2     8  VAL8       -0.2867
      5  CB         9.5750   25.1740   14.7180 C.3     8  VAL8        0.0252
      6  CG1        9.0250   24.9460   16.1210 C.3     8  VAL8        0.0019
      7  CG2        8.4940   25.8120   13.8410 C.3     8  VAL8        0.0019
      8  N         12.1810   20.7790   12.2770 N.3    16  ILE16      -0.1245
      9  CA        10.8690   21.3720   11.9370 C.3    16  ILE16       0.1561
     10  C         10.9360   22.8170   11.4540 C.2    16  ILE16       0.2260
     11  O         11.5300   23.6800   12.1100 O.2    16  ILE16      -0.2867
     12  CB         9.9120   21.3020   13.1500 C.3    16  ILE16       0.0252
     13  CG1        9.9180   19.8760   13.7370 C.3    16  ILE16       0.0019
     14  CG2        8.5170   21.7670   12.7560 C.3    16  ILE16       0.0019
     15  CD1        9.1270   19.7270   15.0160 C.3    16  ILE16       0.0001
     16  N          5.4450   30.3530   16.8100 N.3    30  ILE30      -0.1245
     17  CA         5.1540   29.0200   17.3010 C.3    30  ILE30       0.1561
     18  C          6.4210   28.5300   17.9590 C.2    30  ILE30       0.2260
     19  O          7.5180   28.6350   17.3870 O.2    30  ILE30      -0.2867
     20  CB         4.8170   28.0810   16.1240 C.3    30  ILE30       0.0252
     21  CG1        3.4760   28.4510   15.5100 C.3    30  ILE30       0.0019
     22  CG2        4.7860   26.6320   16.5530 C.3    30  ILE30       0.0019
     23  CD1        3.3870   28.0010   14.0700 C.3    30  ILE30       0.0001
     24  N          7.8780   25.0880   20.4590 N.3    32  VAL32      -0.1245
     25  CA         7.5490   23.7550   20.9310 C.3    32  VAL32       0.1561
     26  C          8.5920   23.3600   21.9770 C.2    32  VAL32       0.2260
     27  O          9.7870   23.4540   21.7180 O.2    32  VAL32      -0.2867
     28  CB         7.5970   22.7680   19.7510 C.3    32  VAL32       0.0252
     29  CG1        7.0390   21.4530   20.1810 C.3    32  VAL32       0.0019
     30  CG2        6.7620   23.3350   18.6070 C.3    32  VAL32       0.0019
     31  N          9.7030   18.4510   19.1800 N.3    36  ILE36      -0.1245
     32  CA         9.0580   17.1670   18.9300 C.3    36  ILE36       0.1561
     33  C         10.0010   16.1290   18.3260 C.2    36  ILE36       0.2260
     34  O         10.8150   16.4480   17.4750 O.2    36  ILE36      -0.2867
     35  CB         7.8990   17.3300   17.9780 C.3    36  ILE36       0.0252
     36  CG1        6.7570   18.0620   18.6830 C.3    36  ILE36       0.0019
     37  CG2        7.5000   15.9850   17.3960 C.3    36  ILE36       0.0019
     38  CD1        5.4630   18.0900   17.8740 C.3    36  ILE36       0.0001
     39  N          3.2080   23.6040   23.6000 N.3    45  LEU45      -0.1245
     40  CA         3.1770   24.4280   22.4210 C.3    45  LEU45       0.1561
     41  C          2.8610   25.8600   22.8320 C.2    45  LEU45       0.2260
     42  O          1.8140   26.1120   23.4390 O.2    45  LEU45      -0.2867
     43  CB         2.1130   23.8860   21.4800 C.3    45  LEU45       0.0270
     44  CG         1.7400   24.7280   20.2600 C.3    45  LEU45       0.0019
     45  CD1        2.9210   24.7890   19.3020 C.3    45  LEU45       0.0001
     46  CD2        0.5030   24.1130   19.6250 C.3    45  LEU45       0.0001
     47  N         -6.1400   19.2020    7.8530 N.3    62  LEU62      -0.1245
     48  CA        -4.7690   18.7400    7.8440 C.3    62  LEU62       0.1561
     49  C         -4.4830   17.9200    6.6040 C.2    62  LEU62       0.2260
     50  O         -5.0710   16.8590    6.3810 O.2    62  LEU62      -0.2867
     51  CB        -4.4840   17.9090    9.0910 C.3    62  LEU62       0.0270
     52  CG        -4.7580   18.6550   10.4030 C.3    62  LEU62       0.0019
     53  CD1       -4.7810   17.6710   11.5570 C.3    62  LEU62       0.0001
     54  CD2       -3.6990   19.7250   10.6240 C.3    62  LEU62       0.0001
     55  N          0.6490   19.1180   24.7470 N.3   103  PHE103     -0.1227
     56  CA         0.4900   18.2120   23.6300 C.3   103  PHE103      0.1736
     57  C          1.1900   16.9050   23.9420 C.2   103  PHE103      0.2596
     58  O          2.1230   16.8520   24.7500 O.2   103  PHE103     -0.2718
     59  CB         1.0130   18.8380   22.3230 C.3   103  PHE103      0.0547
     60  CG         2.5000   18.8760   22.2190 C.ar  103  PHE103     -0.0202
     61  CD1        3.2120   17.7390   21.8720 C.ar  103  PHE103     -0.0042
     62  CD2        3.1960   20.0530   22.4460 C.ar  103  PHE103     -0.0042
     63  CE1        4.5710   17.7690   21.7800 C.ar  103  PHE103     -0.0003
     64  CE2        4.5720   20.0920   22.3520 C.ar  103  PHE103     -0.0003
     65  CZ         5.2640   18.9430   22.0190 C.ar  103  PHE103     -0.0000
     66  N          0.7050   15.8420   23.3120 N.am  104  SER104     -0.1938
     67  CA         1.3140   14.5310   23.3880 C.3   104  SER104      0.2055
     68  C          1.2660   13.9520   21.9760 C.2   104  SER104      0.2643
     69  O          0.1940   13.7190   21.4420 O.2   104  SER104     -0.2714
     70  CB         0.5220   13.6310   24.3510 C.3   104  SER104      0.2130
     71  OG         1.2250   12.4340   24.6210 O.3   104  SER104     -0.2179
     72  N          2.4240   13.7920   21.3450 N.am  105  PHE105     -0.1959
     73  CA         2.4700   13.2010   20.0060 C.3   105  PHE105      0.1771
     74  C          2.8330   11.7220   20.1330 C.2   105  PHE105      0.2619
     75  O          3.8430   11.3980   20.7320 O.2   105  PHE105     -0.2715
     76  CB         3.4850   13.9310   19.1250 C.3   105  PHE105      0.0574
     77  CG         3.7430   13.2360   17.8250 C.ar  105  PHE105     -0.0200
     78  CD1        5.0180   12.8100   17.4880 C.ar  105  PHE105     -0.0042
     79  CD2        2.6930   12.9420   16.9650 C.ar  105  PHE105     -0.0042
     80  CE1        5.2520   12.1400   16.2930 C.ar  105  PHE105     -0.0003
     81  CE2        2.9220   12.2760   15.7630 C.ar  105  PHE105     -0.0003
     82  CZ         4.2040   11.8690   15.4310 C.ar  105  PHE105     -0.0000
     83  N          2.0130   10.8190   19.5940 N.am  106  LYS106     -0.1977
     84  CA         2.2660    9.3820   19.7950 C.3   106  LYS106      0.1596
     85  C          3.5280    8.8280   19.1190 C.2   106  LYS106      0.2287
     86  O          4.1360    7.8830   19.6120 O.2   106  LYS106     -0.2864
     87  CB         1.0480    8.5320   19.4180 C.3   106  LYS106      0.0298
     88  CG         0.7890    8.3950   17.9290 C.3   106  LYS106      0.0038
     89  CD        -0.3910    7.4690   17.7070 C.3   106  LYS106      0.0206
     90  CE        -0.7920    7.3810   16.2490 C.3   106  LYS106      0.1093
     91  NZ        -1.8050    6.2960   16.0730 N.3   106  LYS106     -0.1314
     92  N          2.9880   18.7100    6.6190 N.3   117  CYS117     -0.1235
     93  CA         1.6150   18.9060    7.0470 C.3   117  CYS117      0.1677
     94  C          1.2370   20.3380    6.7560 C.2   117  CYS117      0.2270
     95  O          1.8630   21.2980    7.2610 O.2   117  CYS117     -0.2867
     96  CB         1.4230   18.6260    8.5350 C.3   117  CYS117      0.0956
     97  SG        -0.3120   18.7840    9.0460 S.3   117  CYS117     -0.0801
     98  N         -1.5020   23.0340    7.4300 N.3   119  VAL119     -0.1245
     99  CA        -2.5370   23.3960    8.3800 C.3   119  VAL119      0.1561
    100  C         -3.3470   24.5740    7.8360 C.2   119  VAL119      0.2260
    101  O         -2.8730   25.7050    7.7740 O.2   119  VAL119     -0.2867
    102  CB        -1.9260   23.7820    9.7280 C.3   119  VAL119      0.0252
    103  CG1       -3.0090   24.1640   10.7120 C.3   119  VAL119      0.0019
    104  CG2       -1.0850   22.6100   10.2830 C.3   119  VAL119      0.0019
    105  N          4.0590   23.0020    7.1860 N.3   135  PHE135     -0.1241
    106  CA         5.1800   22.5040    8.0120 C.3   135  PHE135      0.1605
    107  C          5.9490   21.4300    7.2720 C.2   135  PHE135      0.2264
    108  O          5.3780   20.5370    6.6320 O.2   135  PHE135     -0.2867
    109  CB         4.6880   21.9170    9.3550 C.3   135  PHE135      0.0534
    110  CG         4.1320   22.9530   10.3140 C.ar  135  PHE135     -0.0203
    111  CD1        2.7660   23.2080   10.3750 C.ar  135  PHE135     -0.0042
    112  CD2        4.9720   23.6150   11.2030 C.ar  135  PHE135     -0.0042
    113  CE1        2.2520   24.1520   11.2560 C.ar  135  PHE135     -0.0003
    114  CE2        4.4610   24.5780   12.0940 C.ar  135  PHE135     -0.0003
    115  CZ         3.1150   24.8550   12.1100 C.ar  135  PHE135     -0.0000
    116  N          8.6720   18.4950    8.1480 N.3   137  ILE137     -0.1245
    117  CA         9.3680   17.8360    9.2310 C.3   137  ILE137      0.1561
    118  C         10.3590   16.8600    8.6410 C.2   137  ILE137      0.2260
    119  O          9.9830   15.8110    8.1400 O.2   137  ILE137     -0.2867
    120  CB         8.4010   17.0900   10.1820 C.3   137  ILE137      0.0252
    121  CG1        7.3340   18.0590   10.7290 C.3   137  ILE137      0.0019
    122  CG2        9.1850   16.3600   11.3050 C.3   137  ILE137      0.0019
    123  CD1        6.0630   18.1010    9.8680 C.3   137  ILE137      0.0001
@<TRIPOS>BOND
     1    50    49    2
     2    49    48    1
     3    92    93    1
     4   108   107    2
     5    94    93    1
     6    94    95    2
     7    93    96    1
     8   105   106    1
     9   107   106    1
    10    98    99    1
    11   101   100    2
    12   100    99    1
    13    48    47    1
    14    48    51    1
    15   106   109    1
    16   119   118    2
    17   116   117    1
    18    99   102    1
    19    96    97    1
    20   118   117    1
    21    51    52    1
    22   117   120    1
    23   109   110    1
    24   102   104    1
    25   102   103    1
    26   123   121    1
    27   120   121    1
    28   120   122    1
    29   110   111   ar
    30   110   112   ar
    31   111   113   ar
    32    52    54    1
    33    52    53    1
    34   112   114   ar
    35   113   115   ar
    36    10     9    1
    37    10    11    2
    38     9     8    1
    39     9    12    1
    40   114   115   ar
    41    14    12    1
    42    12    13    1
    43     1     2    1
    44    13    15    1
    45     7     5    1
    46    23    21    1
    47     5     2    1
    48     5     6    1
    49     2     3    1
    50    82    81   ar
    51    82    80   ar
    52    21    20    1
    53    81    79   ar
    54     3     4    2
    55    91    90    1
    56    20    22    1
    57    20    17    1
    58    90    89    1
    59    80    78   ar
    60    16    17    1
    61    79    77   ar
    62    17    18    1
    63    19    18    2
    64    37    35    1
    65    34    33    2
    66    78    77   ar
    67    89    88    1
    68    77    76    1
    69    38    36    1
    70    88    87    1
    71    35    36    1
    72    35    32    1
    73    33    32    1
    74    30    28    1
    75    32    31    1
    76    85    86    2
    77    85    84    1
    78    76    73    1
    79    45    44    1
    80    87    84    1
    81    83    84    1
    82    83    74   am
    83    46    44    1
    84    28    29    1
    85    28    25    1
    86    73    74    1
    87    73    72    1
    88    74    75    2
    89    44    43    1
    90    24    25    1
    91    25    26    1
    92    72    68   am
    93    69    68    2
    94    43    40    1
    95    27    26    2
    96    63    61   ar
    97    63    65   ar
    98    61    60   ar
    99    68    67    1
   100    65    64   ar
   101    60    59    1
   102    60    62   ar
   103    59    56    1
   104    64    62   ar
   105    40    41    1
   106    40    39    1
   107    41    42    2
   108    66    67    1
   109    66    57   am
   110    67    70    1
   111    56    57    1
   112    56    55    1
   113    57    58    2
   114    70    71    1
