@<TRIPOS>MOLECULE
tmp/2e59A02.pdb
 233 219 0 0 0
SMALL
GASTEIGER

@<TRIPOS>ATOM
      1  N          2.4840   34.4360   12.7570 N.3    28  ILE28      -0.1245
      2  CA         2.2250   33.6590   13.9330 C.3    28  ILE28       0.1561
      3  C          3.5790   33.2400   14.4880 C.2    28  ILE28       0.2260
      4  O          4.5220   33.0280   13.7270 O.2    28  ILE28      -0.2867
      5  CB         1.2930   32.4540   13.6020 C.3    28  ILE28       0.0252
      6  CG1        0.8630   31.7120   14.8550 C.3    28  ILE28       0.0019
      7  CG2        1.9640   31.4670   12.6860 C.3    28  ILE28       0.0019
      8  CD1       -0.3000   30.7710   14.6160 C.3    28  ILE28       0.0001
      9  N          5.3780   30.3590   16.8270 N.3    30  ILE30      -0.1245
     10  CA         5.0660   29.0090   17.2120 C.3    30  ILE30       0.1561
     11  C          6.3140   28.4970   17.8680 C.2    30  ILE30       0.2260
     12  O          7.4040   28.5840   17.2930 O.2    30  ILE30      -0.2867
     13  CB         4.6840   28.1850   15.9610 C.3    30  ILE30       0.0252
     14  CG1        3.2620   28.5470   15.5460 C.3    30  ILE30       0.0019
     15  CG2        4.7730   26.6810   16.1980 C.3    30  ILE30       0.0019
     16  CD1        2.9330   28.1240   14.1760 C.3    30  ILE30       0.0001
     17  N          6.3600   14.4190   24.3990 N.3    42  LYS42      -0.1245
     18  CA         5.3200   15.3490   24.8150 C.3    42  LYS42       0.1561
     19  C          5.9200   16.6750   25.2110 C.2    42  LYS42       0.2260
     20  O          7.1410   16.8170   25.3120 O.2    42  LYS42      -0.2867
     21  CB         4.4570   14.7660   25.9310 C.3    42  LYS42       0.0271
     22  CG         5.1140   13.7160   26.7810 C.3    42  LYS42       0.0035
     23  CD         4.0890   12.7210   27.3360 C.3    42  LYS42       0.0206
     24  CE         2.7560   13.3920   27.6710 C.3    42  LYS42       0.1093
     25  NZ         1.7470   12.4320   28.2350 N.3    42  LYS42      -0.1314
     26  N          3.2300   23.6470   23.6270 N.3    45  LEU45      -0.1245
     27  CA         3.1990   24.4540   22.4440 C.3    45  LEU45       0.1561
     28  C          2.9120   25.8910   22.8240 C.2    45  LEU45       0.2260
     29  O          1.8390   26.1870   23.3460 O.2    45  LEU45      -0.2867
     30  CB         2.0860   23.9350   21.5500 C.3    45  LEU45       0.0270
     31  CG         1.7590   24.8210   20.3670 C.3    45  LEU45       0.0019
     32  CD1        2.9620   24.9380   19.4530 C.3    45  LEU45       0.0001
     33  CD2        0.5610   24.2590   19.6540 C.3    45  LEU45       0.0001
     34  N          2.0880   29.6350   21.5450 N.3    47  ILE47      -0.1245
     35  CA         1.5630   30.3750   20.4110 C.3    47  ILE47       0.1561
     36  C          1.4450   31.8570   20.7710 C.2    47  ILE47       0.2260
     37  O          0.7510   32.1980   21.7190 O.2    47  ILE47      -0.2867
     38  CB         0.1410   29.8740   20.0490 C.3    47  ILE47       0.0252
     39  CG1        0.1370   28.3800   19.7140 C.3    47  ILE47       0.0019
     40  CG2       -0.4310   30.6480   18.8830 C.3    47  ILE47       0.0019
     41  CD1        0.6950   28.0430   18.3630 C.3    47  ILE47       0.0001
     42  N         -0.0220   35.0870   18.8090 N.3    49  TYR49      -0.1241
     43  CA        -0.7740   35.3520   17.5960 C.3    49  TYR49       0.1605
     44  C         -1.7000   36.5340   17.8020 C.2    49  TYR49       0.2264
     45  O         -2.4140   36.5890   18.7870 O.2    49  TYR49      -0.2867
     46  CB        -1.6060   34.1260   17.2060 C.3    49  TYR49       0.0534
     47  CG        -2.2020   34.1920   15.8120 C.ar   49  TYR49      -0.0201
     48  CD1       -1.4700   34.7160   14.7460 C.ar   49  TYR49      -0.0009
     49  CD2       -3.4800   33.7070   15.5510 C.ar   49  TYR49      -0.0009
     50  CE1       -2.0120   34.7810   13.4670 C.ar   49  TYR49       0.0417
     51  CE2       -4.0260   33.7740   14.2640 C.ar   49  TYR49       0.0417
     52  CZ        -3.2810   34.3150   13.2360 C.ar   49  TYR49       0.1957
     53  OH        -3.7960   34.3720   11.9530 O.3    49  TYR49      -0.2866
     54  N        -11.2350   33.5630   16.8800 N.3    55  LEU55      -0.1245
     55  CA       -10.8530   32.1570   16.9420 C.3    55  LEU55       0.1561
     56  C        -12.0180   31.2390   17.2740 C.2    55  LEU55       0.2260
     57  O        -11.8170   30.0580   17.5030 O.2    55  LEU55      -0.2867
     58  CB        -9.7460   31.9530   17.9630 C.3    55  LEU55       0.0270
     59  CG        -8.3810   32.3800   17.4590 C.3    55  LEU55       0.0019
     60  CD1       -8.4680   33.7740   16.8670 C.3    55  LEU55       0.0001
     61  CD2       -7.3650   32.3490   18.5810 C.3    55  LEU55       0.0001
     62  N        -12.8230   27.3040   15.9160 N.3    58  LEU58      -0.1245
     63  CA       -11.5990   27.0340   15.1600 C.3    58  LEU58       0.1561
     64  C        -11.4020   25.5530   14.9310 C.2    58  LEU58       0.2260
     65  O        -11.5160   24.7740   15.8620 O.2    58  LEU58      -0.2867
     66  CB       -10.3860   27.5920   15.9120 C.3    58  LEU58       0.0270
     67  CG        -8.9860   27.2000   15.4420 C.3    58  LEU58       0.0019
     68  CD1       -8.5640   27.9460   14.1900 C.3    58  LEU58       0.0001
     69  CD2       -8.0390   27.4850   16.5240 C.3    58  LEU58       0.0001
     70  N         -8.9040   22.6400   12.2400 N.3    60  PHE60      -0.1241
     71  CA        -7.8460   22.4610   11.2600 C.3    60  PHE60       0.1605
     72  C         -8.1960   21.4080   10.2210 C.2    60  PHE60       0.2264
     73  O         -8.5920   20.3000   10.5760 O.2    60  PHE60      -0.2867
     74  CB        -6.5720   21.9680   11.9240 C.3    60  PHE60       0.0534
     75  CG        -5.9620   22.9370   12.8760 C.ar   60  PHE60      -0.0203
     76  CD1       -6.1770   24.2840   12.7480 C.ar   60  PHE60      -0.0042
     77  CD2       -5.1320   22.4910   13.8740 C.ar   60  PHE60      -0.0042
     78  CE1       -5.5970   25.1610   13.6200 C.ar   60  PHE60      -0.0003
     79  CE2       -4.5570   23.3610   14.7320 C.ar   60  PHE60      -0.0003
     80  CZ        -4.7930   24.7080   14.6000 C.ar   60  PHE60      -0.0000
     81  N         -6.0440   19.1050    8.1040 N.3    62  LEU62      -0.1245
     82  CA        -4.6690   18.6260    8.0320 C.3    62  LEU62       0.1561
     83  C         -4.4360   17.7860    6.7910 C.2    62  LEU62       0.2260
     84  O         -5.0950   16.7530    6.5750 O.2    62  LEU62      -0.2867
     85  CB        -4.3390   17.7700    9.2490 C.3    62  LEU62       0.0270
     86  CG        -4.6320   18.4390   10.6020 C.3    62  LEU62       0.0019
     87  CD1       -4.3230   17.4610   11.7020 C.3    62  LEU62       0.0001
     88  CD2       -3.8430   19.7270   10.8040 C.3    62  LEU62       0.0001
     89  N         -9.5880   18.2110   12.6360 N.3    76  GLU76      -0.1231
     90  CA        -9.5270   18.1900   14.0710 C.3    76  GLU76       0.1699
     91  C        -10.0970   19.5200   14.5090 C.2    76  GLU76       0.2592
     92  O         -9.4960   20.5610   14.2600 O.2    76  GLU76      -0.2718
     93  CB        -8.0840   18.0360   14.5600 C.3    76  GLU76       0.0402
     94  CG        -7.2300   17.0500   13.7700 C.3    76  GLU76       0.1161
     95  CD        -7.3570   15.6100   14.2300 C.2    76  GLU76       0.3649
     96  OE1       -8.2410   15.3210   15.0680 O.co2  76  GLU76      -0.2457
     97  OE2       -6.5640   14.7640   13.7460 O.co2  76  GLU76      -0.2457
     98  N        -11.2810   19.4890   15.1140 N.am   77  VAL77      -0.1966
     99  CA       -11.8560   20.6930   15.6880 C.3    77  VAL77       0.1727
    100  C        -11.0860   21.0390   16.9440 C.2    77  VAL77       0.2616
    101  O        -10.7960   20.1710   17.7560 O.2    77  VAL77      -0.2715
    102  CB       -13.3430   20.5360   16.0110 C.3    77  VAL77       0.0290
    103  CG1      -13.7510   21.5280   17.1070 C.3    77  VAL77       0.0023
    104  CG2      -14.1790   20.7530   14.7460 C.3    77  VAL77       0.0023
    105  N        -10.7410   22.3140   17.0820 N.am   78  ILE78      -0.1977
    106  CA        -9.9060   22.7780   18.1750 C.3    78  ILE78       0.1596
    107  C        -10.7610   23.4880   19.2150 C.2    78  ILE78       0.2287
    108  O        -10.7820   23.1110   20.3850 O.2    78  ILE78      -0.2864
    109  CB        -8.8440   23.7410   17.6620 C.3    78  ILE78       0.0276
    110  CG1       -7.9790   23.0550   16.6070 C.3    78  ILE78       0.0022
    111  CG2       -8.0230   24.2700   18.7980 C.3    78  ILE78       0.0022
    112  CD1       -7.4880   21.7200   17.0020 C.3    78  ILE78       0.0001
    113  N        -10.0010   25.9720   25.2450 N.3    86  TYR86      -0.1241
    114  CA        -8.8640   26.7950   25.5060 C.3    86  TYR86       0.1605
    115  C         -9.3450   28.2290   25.6130 C.2    86  TYR86       0.2264
    116  O        -10.2730   28.6310   24.9110 O.2    86  TYR86      -0.2867
    117  CB        -7.8860   26.6570   24.3560 C.3    86  TYR86       0.0534
    118  CG        -7.2870   25.2800   24.2040 C.ar   86  TYR86      -0.0201
    119  CD1       -7.7370   24.4060   23.2240 C.ar   86  TYR86      -0.0009
    120  CD2       -6.2520   24.8660   25.0300 C.ar   86  TYR86      -0.0009
    121  CE1       -7.1660   23.1590   23.0800 C.ar   86  TYR86       0.0417
    122  CE2       -5.6990   23.6250   24.9050 C.ar   86  TYR86       0.0417
    123  CZ        -6.1510   22.7810   23.9270 C.ar   86  TYR86       0.1957
    124  OH        -5.5810   21.5470   23.8170 O.3    86  TYR86      -0.2866
    125  N         -8.0930   30.8500   24.5190 N.3    88  PHE88      -0.1241
    126  CA        -7.8900   31.6150   23.2750 C.3    88  PHE88       0.1605
    127  C         -9.0780   31.4910   22.3300 C.2    88  PHE88       0.2264
    128  O         -9.2000   32.2650   21.3840 O.2    88  PHE88      -0.2867
    129  CB        -6.5690   31.2550   22.5590 C.3    88  PHE88       0.0534
    130  CG        -6.4790   29.8250   22.1000 C.ar   88  PHE88      -0.0203
    131  CD1       -5.6040   28.9410   22.7140 C.ar   88  PHE88      -0.0042
    132  CD2       -7.2490   29.3680   21.0410 C.ar   88  PHE88      -0.0042
    133  CE1       -5.5160   27.6340   22.3000 C.ar   88  PHE88      -0.0003
    134  CE2       -7.1670   28.0530   20.6360 C.ar   88  PHE88      -0.0003
    135  CZ        -6.2980   27.1860   21.2790 C.ar   88  PHE88      -0.0000
    136  N         -3.3120   36.7140   21.2740 N.3    97  VAL97      -0.1245
    137  CA        -3.3190   35.3640   21.8340 C.3    97  VAL97       0.1561
    138  C         -1.9040   35.1090   22.2440 C.2    97  VAL97       0.2260
    139  O         -0.9950   35.2900   21.4490 O.2    97  VAL97      -0.2867
    140  CB        -3.6800   34.3070   20.7950 C.3    97  VAL97       0.0252
    141  CG1       -3.4390   32.9220   21.3520 C.3    97  VAL97       0.0019
    142  CG2       -5.1190   34.4550   20.3760 C.3    97  VAL97       0.0019
    143  N          0.0110   25.3970   25.4640 N.3   101  ILE101     -0.1231
    144  CA        -0.9170   24.2670   25.3200 C.3   101  ILE101      0.1692
    145  C         -0.1420   22.9790   25.4330 C.2   101  ILE101      0.2593
    146  O          0.9500   22.8700   24.9030 O.2   101  ILE101     -0.2718
    147  CB        -1.5260   24.2430   23.9230 C.3   101  ILE101      0.0266
    148  CG1       -2.4370   25.4480   23.6980 C.3   101  ILE101      0.0019
    149  CG2       -2.2720   22.9660   23.6940 C.3   101  ILE101      0.0020
    150  CD1       -2.4110   25.9490   22.2660 C.3   101  ILE101      0.0001
    151  N         -0.6980   21.9960   26.1190 N.am  102  SER102     -0.1938
    152  CA         0.0090   20.7600   26.3340 C.3   102  SER102      0.2055
    153  C         -0.1790   19.8880   25.1340 C.2   102  SER102      0.2643
    154  O         -1.2140   19.9350   24.4850 O.2   102  SER102     -0.2714
    155  CB        -0.5150   20.0230   27.5650 C.3   102  SER102      0.2130
    156  OG         0.2970   20.2720   28.6890 O.3   102  SER102     -0.2179
    157  N          0.8230   19.0800   24.8310 N.am  103  PHE103     -0.1959
    158  CA         0.6370   18.1050   23.7690 C.3   103  PHE103      0.1771
    159  C          1.3680   16.8230   24.0600 C.2   103  PHE103      0.2620
    160  O          2.3590   16.7910   24.7930 O.2   103  PHE103     -0.2715
    161  CB         1.0340   18.6520   22.3960 C.3   103  PHE103      0.0574
    162  CG         2.4970   18.8360   22.2300 C.ar  103  PHE103     -0.0200
    163  CD1        3.2950   17.7850   21.8410 C.ar  103  PHE103     -0.0042
    164  CD2        3.0820   20.0640   22.4490 C.ar  103  PHE103     -0.0042
    165  CE1        4.6510   17.9360   21.7010 C.ar  103  PHE103     -0.0003
    166  CE2        4.4600   20.2330   22.3010 C.ar  103  PHE103     -0.0003
    167  CZ         5.2390   19.1670   21.9380 C.ar  103  PHE103     -0.0000
    168  N          0.8300   15.7600   23.4890 N.am  104  SER104     -0.1950
    169  CA         1.4880   14.4890   23.4770 C.3   104  SER104      0.1924
    170  C          1.5310   14.0260   22.0310 C.2   104  SER104      0.2314
    171  O          0.5280   14.0530   21.3250 O.2   104  SER104     -0.2863
    172  CB         0.7420   13.4980   24.3600 C.3   104  SER104      0.2116
    173  OG         1.3550   12.2350   24.2900 O.3   104  SER104     -0.2180
    174  N          2.3710   10.7060   20.0890 N.3   106  LYS106     -0.1245
    175  CA         2.6570    9.2660   20.1930 C.3   106  LYS106      0.1561
    176  C          3.9310    8.8160   19.4600 C.2   106  LYS106      0.2260
    177  O          4.7400    8.0500   19.9950 O.2   106  LYS106     -0.2867
    178  CB         1.4580    8.4240   19.7270 C.3   106  LYS106      0.0271
    179  CG         1.6320    6.9190   20.0000 C.3   106  LYS106      0.0035
    180  CD         0.3060    6.1700   19.9880 C.3   106  LYS106      0.0206
    181  CE        -0.5870    6.6070   21.1540 C.3   106  LYS106      0.1093
    182  NZ        -2.0250    6.1900   21.0080 N.3   106  LYS106     -0.1314
    183  N          3.0100   18.5830    6.7110 N.3   117  CYS117     -0.1235
    184  CA         1.6510   18.7110    7.1690 C.3   117  CYS117      0.1677
    185  C          1.2560   20.1160    6.8430 C.2   117  CYS117      0.2270
    186  O          1.8950   21.0650    7.3030 O.2   117  CYS117     -0.2867
    187  CB         1.5350   18.5110    8.6780 C.3   117  CYS117      0.0956
    188  SG        -0.1950   18.4230    9.2300 S.3   117  CYS117     -0.0801
    189  N         -1.4870   22.9000    7.3820 N.3   119  VAL119     -0.1245
    190  CA        -2.5090   23.2150    8.3630 C.3   119  VAL119      0.1561
    191  C         -3.3560   24.3650    7.8710 C.2   119  VAL119      0.2260
    192  O         -2.9070   25.4910    7.8100 O.2   119  VAL119     -0.2867
    193  CB        -1.8970   23.5970    9.7120 C.3   119  VAL119      0.0252
    194  CG1       -2.9680   24.0790   10.6430 C.3   119  VAL119      0.0019
    195  CG2       -1.1950   22.4010   10.3020 C.3   119  VAL119      0.0019
    196  N         -8.1910   31.3540    8.6560 N.3   130  LEU130     -0.1231
    197  CA        -7.5100   32.2110    9.5870 C.3   130  LEU130      0.1693
    198  C         -6.0590   32.3270    9.1220 C.2   130  LEU130      0.2592
    199  O         -5.5280   33.4300    8.9470 O.2   130  LEU130     -0.2718
    200  CB        -7.6270   31.6230   10.9930 C.3   130  LEU130      0.0284
    201  CG        -6.8800   32.2310   12.1810 C.3   130  LEU130      0.0019
    202  CD1       -7.3400   33.6450   12.4670 C.3   130  LEU130      0.0001
    203  CD2       -7.1120   31.3360   13.3730 C.3   130  LEU130      0.0001
    204  N         -5.4320   31.1730    8.8990 N.am  131  PHE131     -0.1976
    205  CA        -4.0810   31.1060    8.3620 C.3   131  PHE131      0.1639
    206  C         -3.8720   29.7920    7.6200 C.2   131  PHE131      0.2290
    207  O         -4.6970   28.8810    7.7120 O.2   131  PHE131     -0.2864
    208  CB        -3.0280   31.3120    9.4750 C.3   131  PHE131      0.0560
    209  CG        -3.0760   30.2840   10.5980 C.ar  131  PHE131     -0.0200
    210  CD1       -3.4860   30.6420   11.8640 C.ar  131  PHE131     -0.0042
    211  CD2       -2.6670   28.9690   10.3920 C.ar  131  PHE131     -0.0042
    212  CE1       -3.5060   29.7100   12.8860 C.ar  131  PHE131     -0.0003
    213  CE2       -2.6830   28.0380   11.4170 C.ar  131  PHE131     -0.0003
    214  CZ        -3.1080   28.4080   12.6610 C.ar  131  PHE131     -0.0000
    215  N         -0.5120   27.1070    7.0480 N.3   133  LEU133     -0.1245
    216  CA         0.8850   26.8340    7.3400 C.3   133  LEU133      0.1561
    217  C          1.2890   25.4890    6.7760 C.2   133  LEU133      0.2260
    218  O          0.5990   24.4920    6.9740 O.2   133  LEU133     -0.2867
    219  CB         1.1180   26.8250    8.8420 C.3   133  LEU133      0.0270
    220  CG         0.9030   28.1270    9.6080 C.3   133  LEU133      0.0019
    221  CD1        1.1860   27.8330   11.0490 C.3   133  LEU133      0.0001
    222  CD2        1.8220   29.2280    9.1230 C.3   133  LEU133      0.0001
    223  N          4.0200   22.8150    7.2950 N.3   135  PHE135     -0.1241
    224  CA         5.1470   22.3840    8.0880 C.3   135  PHE135      0.1605
    225  C          5.8840   21.3300    7.3210 C.2   135  PHE135      0.2264
    226  O          5.2820   20.4850    6.6420 O.2   135  PHE135     -0.2867
    227  CB         4.7040   21.7940    9.4360 C.3   135  PHE135      0.0534
    228  CG         4.1310   22.8020   10.3780 C.ar  135  PHE135     -0.0203
    229  CD1        2.7970   23.1300   10.3330 C.ar  135  PHE135     -0.0042
    230  CD2        4.9310   23.4260   11.3180 C.ar  135  PHE135     -0.0042
    231  CE1        2.2530   24.0800   11.1970 C.ar  135  PHE135     -0.0003
    232  CE2        4.3990   24.3650   12.1890 C.ar  135  PHE135     -0.0003
    233  CZ         3.0570   24.6960   12.1220 C.ar  135  PHE135     -0.0000
@<TRIPOS>BOND
     1    84    83    2
     2   226   225    2
     3   183   184    1
     4   217   218    2
     5   217   216    1
     6    83    82    1
     7   185   184    1
     8   185   186    2
     9   215   216    1
    10   184   187    1
    11   223   224    1
    12   225   224    1
    13   216   219    1
    14   189   190    1
    15   206   207    2
    16   206   205    1
    17   192   191    2
    18   191   190    1
    19    82    81    1
    20    82    85    1
    21   224   227    1
    22   205   204    1
    23   205   208    1
    24   190   193    1
    25   196   197    1
    26   187   188    1
    27   219   220    1
    28   204   198   am
    29   199   198    2
    30   198   197    1
    31   222   220    1
    32    85    86    1
    33   227   228    1
    34   208   209    1
    35   197   200    1
    36   220   221    1
    37   193   195    1
    38   193   194    1
    39    72    73    2
    40    72    71    1
    41   229   228   ar
    42   229   231   ar
    43   228   230   ar
    44   211   209   ar
    45   211   213   ar
    46   209   210   ar
    47    86    88    1
    48    86    87    1
    49   200   201    1
    50   231   233   ar
    51    71    74    1
    52    71    70    1
    53   230   232   ar
    54   213   214   ar
    55   210   212   ar
    56    74    75    1
    57    53    52    1
    58   233   232   ar
    59   201   202    1
    60   201   203    1
    61    89    90    1
    62   214   212   ar
    63     7     5    1
    64    76    75   ar
    65    76    78   ar
    66     1     2    1
    67    75    77   ar
    68    52    50   ar
    69    52    51   ar
    70    50    48   ar
    71     5     2    1
    72     5     6    1
    73    78    80   ar
    74     4     3    2
    75    97    95   ar
    76    94    95    1
    77    94    93    1
    78    77    79   ar
    79     2     3    1
    80    90    91    1
    81    90    93    1
    82    16    14    1
    83    68    67    1
    84    95    96   ar
    85    92    91    2
    86    51    49   ar
    87    91    98   am
    88    80    79   ar
    89     8     6    1
    90    48    47   ar
    91   104   102    1
    92    64    63    1
    93    64    65    2
    94    98    99    1
    95    63    66    1
    96    63    62    1
    97    67    66    1
    98    67    69    1
    99    14    13    1
   100    49    47   ar
   101    99   102    1
   102    99   100    1
   103    47    46    1
   104    13    15    1
   105    13    10    1
   106   102   103    1
   107   110   112    1
   108   110   109    1
   109     9    10    1
   110    60    59    1
   111    54    55    1
   112    55    56    1
   113    55    58    1
   114   100   105   am
   115   100   101    2
   116   105   106    1
   117    46    43    1
   118    10    11    1
   119    56    57    2
   120    12    11    2
   121    59    58    1
   122    59    61    1
   123    43    44    1
   124    43    42    1
   125   109   106    1
   126   109   111    1
   127    44    45    2
   128   106   107    1
   129    41    39    1
   130    40    38    1
   131   107   108    2
   132    32    31    1
   133   176   177    2
   134   176   175    1
   135    33    31    1
   136    39    38    1
   137   178   179    1
   138   178   175    1
   139   180   179    1
   140   180   181    1
   141    38    35    1
   142   174   175    1
   143    31    30    1
   144   142   140    1
   145    35    36    1
   146    35    34    1
   147   134   132   ar
   148   134   135   ar
   149    36    37    2
   150   140   141    1
   151   140   137    1
   152   182   181    1
   153   132   130   ar
   154   136   137    1
   155   135   133   ar
   156   171   170    2
   157   128   127    2
   158   139   138    2
   159    30    27    1
   160   165   163   ar
   161   165   167   ar
   162   137   138    1
   163   163   162   ar
   164   167   166   ar
   165   170   169    1
   166   130   129    1
   167   130   131   ar
   168   162   161    1
   169   162   164   ar
   170   150   148    1
   171   133   131   ar
   172   166   164   ar
   173   127   126    1
   174   161   158    1
   175    27    28    1
   176    27    26    1
   177   129   126    1
   178    28    29    2
   179   121   119   ar
   180   121   123   ar
   181   119   118   ar
   182   126   125    1
   183   169   168    1
   184   169   172    1
   185   168   159   am
   186   149   147    1
   187   148   147    1
   188   158   159    1
   189   158   157    1
   190   124   123    1
   191   147   144    1
   192   123   122   ar
   193   159   160    2
   194   118   117    1
   195   118   120   ar
   196   173   172    1
   197   117   114    1
   198    17    18    1
   199   154   153    2
   200    18    19    1
   201    18    21    1
   202   157   153   am
   203   146   145    2
   204   122   120   ar
   205   116   115    2
   206   153   152    1
   207    19    20    2
   208   113   114    1
   209   144   145    1
   210   144   143    1
   211   145   151   am
   212   114   115    1
   213    21    22    1
   214   151   152    1
   215   152   155    1
   216    22    23    1
   217    23    24    1
   218   155   156    1
   219    24    25    1
