@<TRIPOS>MOLECULE
tmp/2e59A03.pdb
 207 193 0 0 0
SMALL
GASTEIGER

@<TRIPOS>ATOM
      1  N         11.3340   26.2330   13.5400 N.3     8  VAL8       -0.1245
      2  CA        10.7200   26.1200   14.8650 C.3     8  VAL8        0.1561
      3  C         11.7390   25.5240   15.8550 C.2     8  VAL8        0.2260
      4  O         12.0660   26.1250   16.8760 O.2     8  VAL8       -0.2867
      5  CB         9.4110   25.2530   14.8480 C.3     8  VAL8        0.0252
      6  CG1        8.7260   25.2790   16.2110 C.3     8  VAL8        0.0019
      7  CG2        8.4360   25.7260   13.8090 C.3     8  VAL8        0.0019
      8  N         12.3260   20.8400   12.2740 N.3    16  ILE16      -0.1245
      9  CA        10.9720   21.3420   11.9930 C.3    16  ILE16       0.1561
     10  C         10.9700   22.7900   11.4930 C.2    16  ILE16       0.2260
     11  O         11.5400   23.6580   12.1030 O.2    16  ILE16      -0.2867
     12  CB        10.0480   21.1970   13.2440 C.3    16  ILE16       0.0252
     13  CG1        9.9620   19.7360   13.6520 C.3    16  ILE16       0.0019
     14  CG2        8.6430   21.6320   12.9620 C.3    16  ILE16       0.0019
     15  CD1        9.2770   19.5190   14.9440 C.3    16  ILE16       0.0001
     16  N          5.3780   30.3590   16.8270 N.3    30  ILE30      -0.1245
     17  CA         5.0660   29.0090   17.2120 C.3    30  ILE30       0.1561
     18  C          6.3140   28.4970   17.8680 C.2    30  ILE30       0.2260
     19  O          7.4040   28.5840   17.2930 O.2    30  ILE30      -0.2867
     20  CB         4.6840   28.1850   15.9610 C.3    30  ILE30       0.0252
     21  CG1        3.2620   28.5470   15.5460 C.3    30  ILE30       0.0019
     22  CG2        4.7730   26.6810   16.1980 C.3    30  ILE30       0.0019
     23  CD1        2.9330   28.1240   14.1760 C.3    30  ILE30       0.0001
     24  N          7.8680   25.1900   20.4330 N.3    32  VAL32      -0.1245
     25  CA         7.6010   23.8540   20.9320 C.3    32  VAL32       0.1561
     26  C          8.6520   23.4510   21.9680 C.2    32  VAL32       0.2260
     27  O          9.8590   23.5830   21.7350 O.2    32  VAL32      -0.2867
     28  CB         7.5560   22.8460   19.7650 C.3    32  VAL32       0.0252
     29  CG1        7.4600   21.4420   20.2960 C.3    32  VAL32       0.0019
     30  CG2        6.3650   23.1400   18.8830 C.3    32  VAL32       0.0019
     31  N          9.6770   18.4560   19.2720 N.3    36  ILE36      -0.1245
     32  CA         9.0540   17.1500   19.0440 C.3    36  ILE36       0.1561
     33  C         10.0150   16.1190   18.4720 C.2    36  ILE36       0.2260
     34  O         10.7640   16.4270   17.5720 O.2    36  ILE36      -0.2867
     35  CB         7.9240   17.2810   18.0530 C.3    36  ILE36       0.0252
     36  CG1        6.7130   17.8710   18.7360 C.3    36  ILE36       0.0019
     37  CG2        7.5630   15.9220   17.4380 C.3    36  ILE36       0.0019
     38  CD1        5.8590   18.6570   17.8100 C.3    36  ILE36       0.0001
     39  N         10.2020   12.5580   16.3640 N.3    38  LEU38      -0.1245
     40  CA         9.3410   11.7900   15.4710 C.3    38  LEU38       0.1561
     41  C          8.9920   10.4610   16.1310 C.2    38  LEU38       0.2260
     42  O          7.8750    9.9750   16.0140 O.2    38  LEU38      -0.2867
     43  CB         9.9970   11.5930   14.0930 C.3    38  LEU38       0.0270
     44  CG         9.8190   12.7310   13.0880 C.3    38  LEU38       0.0019
     45  CD1       10.8170   12.6770   11.9610 C.3    38  LEU38       0.0001
     46  CD2        8.4050   12.7600   12.5520 C.3    38  LEU38       0.0001
     47  N          3.2300   23.6470   23.6270 N.3    45  LEU45      -0.1245
     48  CA         3.1990   24.4540   22.4440 C.3    45  LEU45       0.1561
     49  C          2.9120   25.8910   22.8240 C.2    45  LEU45       0.2260
     50  O          1.8390   26.1870   23.3460 O.2    45  LEU45      -0.2867
     51  CB         2.0860   23.9350   21.5500 C.3    45  LEU45       0.0270
     52  CG         1.7590   24.8210   20.3670 C.3    45  LEU45       0.0019
     53  CD1        2.9620   24.9380   19.4530 C.3    45  LEU45       0.0001
     54  CD2        0.5610   24.2590   19.6540 C.3    45  LEU45       0.0001
     55  N         -6.0440   19.1050    8.1040 N.3    62  LEU62      -0.1245
     56  CA        -4.6690   18.6260    8.0320 C.3    62  LEU62       0.1561
     57  C         -4.4360   17.7860    6.7910 C.2    62  LEU62       0.2260
     58  O         -5.0950   16.7530    6.5750 O.2    62  LEU62      -0.2867
     59  CB        -4.3390   17.7700    9.2490 C.3    62  LEU62       0.0270
     60  CG        -4.6320   18.4390   10.6020 C.3    62  LEU62       0.0019
     61  CD1       -4.3230   17.4610   11.7020 C.3    62  LEU62       0.0001
     62  CD2       -3.8430   19.7270   10.8040 C.3    62  LEU62       0.0001
     63  N         -1.4860   15.7030    5.5210 N.3    64  ILE64      -0.1245
     64  CA        -0.2060   15.0870    5.8390 C.3    64  ILE64       0.1561
     65  C          0.3820   14.3480    4.6180 C.2    64  ILE64       0.2260
     66  O         -0.3530   13.7220    3.8640 O.2    64  ILE64      -0.2867
     67  CB        -0.3670   14.1270    7.0350 C.3    64  ILE64       0.0252
     68  CG1       -0.8070   14.9100    8.2760 C.3    64  ILE64       0.0019
     69  CG2        0.9290   13.4100    7.3480 C.3    64  ILE64       0.0019
     70  CD1       -1.2940   14.0460    9.4010 C.3    64  ILE64       0.0001
     71  N          3.7270   11.7950    3.5330 N.3    66  VAL66      -0.1245
     72  CA         4.7650   10.9470    4.0700 C.3    66  VAL66       0.1561
     73  C          5.6850   10.5510    2.9440 C.2    66  VAL66       0.2260
     74  O          5.3440    9.7280    2.1150 O.2    66  VAL66      -0.2867
     75  CB         4.1690    9.6900    4.7330 C.3    66  VAL66       0.0252
     76  CG1        5.2680    8.7820    5.2770 C.3    66  VAL66       0.0019
     77  CG2        3.2070   10.0870    5.8370 C.3    66  VAL66       0.0019
     78  N         -1.6080   11.6160    2.3320 N.3    71  LEU71      -0.1245
     79  CA        -2.6040   10.8640    3.0610 C.3    71  LEU71       0.1561
     80  C         -3.9260   11.6050    2.8850 C.2    71  LEU71       0.2260
     81  O         -3.9370   12.7890    2.4800 O.2    71  LEU71      -0.2867
     82  CB        -2.2520   10.7750    4.5470 C.3    71  LEU71       0.0270
     83  CG        -0.9030   10.2210    5.0070 C.3    71  LEU71       0.0019
     84  CD1       -0.8790   10.1400    6.5220 C.3    71  LEU71       0.0001
     85  CD2       -0.6390    8.8660    4.3890 C.3    71  LEU71       0.0001
     86  N         -7.4740   15.1750    7.0540 N.3    74  ARG74      -0.1245
     87  CA        -7.9130   14.9500    8.4210 C.3    74  ARG74       0.1563
     88  C         -8.5290   16.2480    8.9390 C.2    74  ARG74       0.2260
     89  O         -8.1450   17.3310    8.5320 O.2    74  ARG74      -0.2867
     90  CB        -6.7500   14.4840    9.3150 C.3    74  ARG74       0.0307
     91  CG        -6.2460   13.0550    9.0230 C.3    74  ARG74       0.0489
     92  CD        -5.1200   12.6390    9.9510 C.3    74  ARG74       0.2205
     93  NE        -4.5090   11.3640    9.5740 N.pl3  74  ARG74      -0.0865
     94  CZ        -3.4830   10.8110   10.2190 C.cat  74  ARG74       0.5346
     95  NH1       -2.9510   11.4190   11.2660 N.pl3  74  ARG74       0.1354
     96  NH2       -2.9880    9.6490    9.8260 N.pl3  74  ARG74       0.1354
     97  N         -9.5880   18.2110   12.6360 N.3    76  GLU76      -0.1245
     98  CA        -9.5270   18.1900   14.0710 C.3    76  GLU76       0.1567
     99  C        -10.0970   19.5200   14.5090 C.2    76  GLU76       0.2260
    100  O         -9.4960   20.5610   14.2600 O.2    76  GLU76      -0.2867
    101  CB        -8.0840   18.0360   14.5600 C.3    76  GLU76       0.0388
    102  CG        -7.2300   17.0500   13.7700 C.3    76  GLU76       0.1160
    103  CD        -7.3570   15.6100   14.2300 C.2    76  GLU76       0.3649
    104  OE1       -8.2410   15.3210   15.0680 O.co2  76  GLU76      -0.2457
    105  OE2       -6.5640   14.7640   13.7460 O.co2  76  GLU76      -0.2457
    106  N          0.8230   19.0800   24.8310 N.3   103  PHE103     -0.1227
    107  CA         0.6370   18.1050   23.7690 C.3   103  PHE103      0.1736
    108  C          1.3680   16.8230   24.0600 C.2   103  PHE103      0.2596
    109  O          2.3590   16.7910   24.7930 O.2   103  PHE103     -0.2718
    110  CB         1.0340   18.6520   22.3960 C.3   103  PHE103      0.0547
    111  CG         2.4970   18.8360   22.2300 C.ar  103  PHE103     -0.0202
    112  CD1        3.2950   17.7850   21.8410 C.ar  103  PHE103     -0.0042
    113  CD2        3.0820   20.0640   22.4490 C.ar  103  PHE103     -0.0042
    114  CE1        4.6510   17.9360   21.7010 C.ar  103  PHE103     -0.0003
    115  CE2        4.4600   20.2330   22.3010 C.ar  103  PHE103     -0.0003
    116  CZ         5.2390   19.1670   21.9380 C.ar  103  PHE103     -0.0000
    117  N          0.8300   15.7600   23.4890 N.am  104  SER104     -0.1938
    118  CA         1.4880   14.4890   23.4770 C.3   104  SER104      0.2055
    119  C          1.5310   14.0260   22.0310 C.2   104  SER104      0.2643
    120  O          0.5280   14.0530   21.3250 O.2   104  SER104     -0.2714
    121  CB         0.7420   13.4980   24.3600 C.3   104  SER104      0.2130
    122  OG         1.3550   12.2350   24.2900 O.3   104  SER104     -0.2179
    123  N          2.7210   13.6570   21.5800 N.am  105  PHE105     -0.1959
    124  CA         2.8990   13.0980   20.2550 C.3   105  PHE105      0.1771
    125  C          3.3000   11.6130   20.3710 C.2   105  PHE105      0.2619
    126  O          4.4250   11.2950   20.7470 O.2   105  PHE105     -0.2715
    127  CB         3.9370   13.9210   19.4720 C.3   105  PHE105      0.0574
    128  CG         4.1310   13.4580   18.0670 C.ar  105  PHE105     -0.0200
    129  CD1        5.3350   12.8920   17.6680 C.ar  105  PHE105     -0.0042
    130  CD2        3.0950   13.5430   17.1500 C.ar  105  PHE105     -0.0042
    131  CE1        5.5130   12.4490   16.3750 C.ar  105  PHE105     -0.0003
    132  CE2        3.2630   13.0860   15.8480 C.ar  105  PHE105     -0.0003
    133  CZ         4.4790   12.5440   15.4610 C.ar  105  PHE105     -0.0000
    134  N          2.3710   10.7060   20.0890 N.am  106  LYS106     -0.1963
    135  CA         2.6570    9.2660   20.1930 C.3   106  LYS106      0.1728
    136  C          3.9310    8.8160   19.4600 C.2   106  LYS106      0.2617
    137  O          4.7400    8.0500   19.9950 O.2   106  LYS106     -0.2715
    138  CB         1.4580    8.4240   19.7270 C.3   106  LYS106      0.0311
    139  CG         1.6320    6.9190   20.0000 C.3   106  LYS106      0.0038
    140  CD         0.3060    6.1700   19.9880 C.3   106  LYS106      0.0206
    141  CE        -0.5870    6.6070   21.1540 C.3   106  LYS106      0.1093
    142  NZ        -2.0250    6.1900   21.0080 N.3   106  LYS106     -0.1314
    143  N          4.1000    9.2760   18.2300 N.am  107  GLY107     -0.1940
    144  CA         5.3160    8.9910   17.4830 C.3   107  GLY107      0.2014
    145  C          5.1680    7.8790   16.4630 C.2   107  GLY107      0.2638
    146  O          4.3580    6.9690   16.6410 O.2   107  GLY107     -0.2714
    147  N          5.9550    7.9640   15.3930 N.am  108  ILE108     -0.1977
    148  CA         6.0660    6.9030   14.4030 C.3   108  ILE108      0.1596
    149  C          7.3630    6.1480   14.6300 C.2   108  ILE108      0.2287
    150  O          8.3950    6.7500   14.9300 O.2   108  ILE108     -0.2864
    151  CB         6.1430    7.4660   12.9980 C.3   108  ILE108      0.0276
    152  CG1        5.5870    8.8810   12.9720 C.3   108  ILE108      0.0022
    153  CG2        5.3930    6.5770   12.0400 C.3   108  ILE108      0.0022
    154  CD1        5.9340    9.6270   11.7210 C.3   108  ILE108      0.0001
    155  N          8.5190   14.5380    6.1540 N.3   115  TYR115     -0.1227
    156  CA         7.0590   14.5970    6.2790 C.3   115  TYR115      0.1736
    157  C          6.6260   16.0290    6.0510 C.2   115  TYR115      0.2595
    158  O          7.4170   16.9490    6.2030 O.2   115  TYR115     -0.2718
    159  CB         6.5950   14.1120    7.6530 C.3   115  TYR115      0.0548
    160  CG         7.0970   12.7510    7.9850 C.ar  115  TYR115     -0.0200
    161  CD1        8.4020   12.5600    8.3870 C.ar  115  TYR115     -0.0009
    162  CD2        6.2900   11.6540    7.8740 C.ar  115  TYR115     -0.0009
    163  CE1        8.8940   11.2990    8.6750 C.ar  115  TYR115      0.0417
    164  CE2        6.7700   10.3840    8.1770 C.ar  115  TYR115      0.0417
    165  CZ         8.0740   10.2190    8.5660 C.ar  115  TYR115      0.1957
    166  OH         8.5620    8.9680    8.8630 O.3   115  TYR115     -0.2866
    167  N          5.3750   16.2070    5.6550 N.am  116  LYS116     -0.1966
    168  CA         4.8040   17.5300    5.5040 C.3   116  LYS116      0.1728
    169  C          3.4430   17.4670    6.1500 C.2   116  LYS116      0.2616
    170  O          2.8060   16.4110    6.1730 O.2   116  LYS116     -0.2715
    171  CB         4.6510   17.9240    4.0240 C.3   116  LYS116      0.0311
    172  CG         5.9620   18.0750    3.2420 C.3   116  LYS116      0.0038
    173  CD         5.7480   18.4580    1.7550 C.3   116  LYS116      0.0206
    174  CE         7.0600   18.2890    0.8890 C.3   116  LYS116      0.1093
    175  NZ         7.1990   16.9710    0.1220 N.3   116  LYS116     -0.1314
    176  N          3.0100   18.5830    6.7110 N.am  117  CYS117     -0.1968
    177  CA         1.6510   18.7110    7.1690 C.3   117  CYS117      0.1712
    178  C          1.2560   20.1160    6.8430 C.2   117  CYS117      0.2296
    179  O          1.8950   21.0650    7.3030 O.2   117  CYS117     -0.2864
    180  CB         1.5350   18.5110    8.6780 C.3   117  CYS117      0.0983
    181  SG        -0.1950   18.4230    9.2300 S.3   117  CYS117     -0.0798
    182  N         -1.4870   22.9000    7.3820 N.3   119  VAL119     -0.1245
    183  CA        -2.5090   23.2150    8.3630 C.3   119  VAL119      0.1561
    184  C         -3.3560   24.3650    7.8710 C.2   119  VAL119      0.2260
    185  O         -2.9070   25.4910    7.8100 O.2   119  VAL119     -0.2867
    186  CB        -1.8970   23.5970    9.7120 C.3   119  VAL119      0.0252
    187  CG1       -2.9680   24.0790   10.6430 C.3   119  VAL119      0.0019
    188  CG2       -1.1950   22.4010   10.3020 C.3   119  VAL119      0.0019
    189  N          4.0200   22.8150    7.2950 N.3   135  PHE135     -0.1241
    190  CA         5.1470   22.3840    8.0880 C.3   135  PHE135      0.1605
    191  C          5.8840   21.3300    7.3210 C.2   135  PHE135      0.2264
    192  O          5.2820   20.4850    6.6420 O.2   135  PHE135     -0.2867
    193  CB         4.7040   21.7940    9.4360 C.3   135  PHE135      0.0534
    194  CG         4.1310   22.8020   10.3780 C.ar  135  PHE135     -0.0203
    195  CD1        2.7970   23.1300   10.3330 C.ar  135  PHE135     -0.0042
    196  CD2        4.9310   23.4260   11.3180 C.ar  135  PHE135     -0.0042
    197  CE1        2.2530   24.0800   11.1970 C.ar  135  PHE135     -0.0003
    198  CE2        4.3990   24.3650   12.1890 C.ar  135  PHE135     -0.0003
    199  CZ         3.0570   24.6960   12.1220 C.ar  135  PHE135     -0.0000
    200  N          8.7180   18.4960    8.2520 N.3   137  ILE137     -0.1245
    201  CA         9.4200   17.8400    9.3330 C.3   137  ILE137      0.1561
    202  C         10.4400   16.8950    8.7280 C.2   137  ILE137      0.2260
    203  O         10.0990   15.8380    8.1850 O.2   137  ILE137     -0.2867
    204  CB         8.4290   17.0520   10.2210 C.3   137  ILE137      0.0252
    205  CG1        7.3700   17.9980   10.7650 C.3   137  ILE137      0.0019
    206  CG2        9.1250   16.3400   11.3290 C.3   137  ILE137      0.0019
    207  CD1        6.1510   18.0500    9.9150 C.3   137  ILE137      0.0001
@<TRIPOS>BOND
     1   175   174    1
     2   174   173    1
     3   173   172    1
     4    74    73    2
     5    78    79    1
     6    81    80    2
     7    80    79    1
     8    73    72    1
     9    79    82    1
    10   172   171    1
    11    71    72    1
    12    66    65    2
    13   171   168    1
    14    72    75    1
    15    85    83    1
    16    82    83    1
    17    65    64    1
    18    75    76    1
    19    75    77    1
    20    83    84    1
    21   168   167    1
    22   168   169    1
    23    63    64    1
    24   167   157   am
    25    64    67    1
    26   157   158    2
    27   157   156    1
    28   169   170    2
    29   169   176   am
    30   155   156    1
    31   156   159    1
    32    58    57    2
    33   192   191    2
    34   176   177    1
    35    57    56    1
    36   178   177    1
    37   178   179    2
    38    67    69    1
    39    67    68    1
    40    86    87    1
    41   177   180    1
    42   189   190    1
    43   191   190    1
    44   182   183    1
    45   159   160    1
    46   185   184    2
    47   184   183    1
    48   162   160   ar
    49   162   164   ar
    50   160   161   ar
    51    56    55    1
    52    56    59    1
    53   190   193    1
    54   164   165   ar
    55   203   202    2
    56   200   201    1
    57    68    70    1
    58   183   186    1
    59   161   163   ar
    60    87    88    1
    61    87    90    1
    62    89    88    2
    63   165   163   ar
    64   165   166    1
    65   180   181    1
    66   202   201    1
    67    91    90    1
    68    91    92    1
    69    59    60    1
    70   201   204    1
    71   193   194    1
    72    93    92    1
    73    93    94    2
    74   186   188    1
    75   186   187    1
    76    96    94    1
    77   207   205    1
    78    94    95    1
    79   204   205    1
    80   204   206    1
    81   195   194   ar
    82   195   197   ar
    83   194   196   ar
    84    60    62    1
    85    60    61    1
    86   197   199   ar
    87   196   198   ar
    88    10     9    1
    89    10    11    2
    90   154   152    1
    91    45    44    1
    92     9     8    1
    93     9    12    1
    94   153   151    1
    95   199   198   ar
    96    46    44    1
    97    97    98    1
    98    14    12    1
    99   152   151    1
   100   151   148    1
   101    44    43    1
   102    12    13    1
   103     1     2    1
   104    13    15    1
   105   105   103   ar
   106   102   103    1
   107   102   101    1
   108     7     5    1
   109    98    99    1
   110    98   101    1
   111    43    40    1
   112    23    21    1
   113   103   104   ar
   114   100    99    2
   115   148   149    1
   116   148   147    1
   117   149   150    2
   118     5     2    1
   119     5     6    1
   120     2     3    1
   121   147   145   am
   122   133   132   ar
   123   133   131   ar
   124    40    41    1
   125    40    39    1
   126    21    20    1
   127   132   130   ar
   128     3     4    2
   129    20    22    1
   130    20    17    1
   131    42    41    2
   132   131   129   ar
   133   145   146    2
   134   145   144    1
   135    16    17    1
   136   130   128   ar
   137    17    18    1
   138    19    18    2
   139    37    35    1
   140   144   143    1
   141    34    33    2
   142   129   128   ar
   143    38    36    1
   144    35    36    1
   145    35    32    1
   146   128   127    1
   147   143   136   am
   148    33    32    1
   149    30    28    1
   150    32    31    1
   151    53    52    1
   152   136   137    2
   153   136   135    1
   154   127   124    1
   155    54    52    1
   156   138   139    1
   157   138   135    1
   158    28    29    1
   159    28    25    1
   160   140   139    1
   161   140   141    1
   162   134   135    1
   163   134   125   am
   164   124   125    1
   165   124   123    1
   166    52    51    1
   167   125   126    2
   168    24    25    1
   169    25    26    1
   170   142   141    1
   171   120   119    2
   172    51    48    1
   173   123   119   am
   174   114   112   ar
   175   114   116   ar
   176    27    26    2
   177   112   111   ar
   178   116   115   ar
   179   119   118    1
   180   111   110    1
   181   111   113   ar
   182   115   113   ar
   183   110   107    1
   184    48    49    1
   185    48    47    1
   186    49    50    2
   187   118   117    1
   188   118   121    1
   189   117   108   am
   190   107   108    1
   191   107   106    1
   192   108   109    2
   193   122   121    1
