@<TRIPOS>MOLECULE
tmp/2e5dA00.pdb
 101 96 0 0 0
SMALL
GASTEIGER

@<TRIPOS>ATOM
      1  N         12.2140    0.7410    3.3700 N.3   174  HIS174     -0.1241
      2  CA        13.4660    1.3650    3.7770 C.3   174  HIS174      0.1621
      3  C         13.4540    1.7130    5.2680 C.2   174  HIS174      0.2264
      4  O         12.4700    2.2500    5.7830 O.2   174  HIS174     -0.2867
      5  CB        13.7010    2.6220    2.9350 C.3   174  HIS174      0.0745
      6  CG        15.1350    3.0410    2.8510 C.ar  174  HIS174      0.0817
      7  ND1       15.9430    2.7160    1.7830 N.ar  174  HIS174     -0.2268
      8  CD2       15.9030    3.7670    3.6980 C.ar  174  HIS174      0.1154
      9  CE1       17.1480    3.2220    1.9770 C.ar  174  HIS174      0.1986
     10  NE2       17.1500    3.8640    3.1320 N.ar  174  HIS174     -0.2212
     11  N         14.0730    3.8330    8.2500 N.3   176  PHE176     -0.1241
     12  CA        14.1450    5.2550    8.6100 C.3   176  PHE176      0.1605
     13  C         14.2870    5.4350   10.1330 C.2   176  PHE176      0.2264
     14  O         14.1690    6.5510   10.6490 O.2   176  PHE176     -0.2867
     15  CB        12.8440    5.9520    8.1750 C.3   176  PHE176      0.0534
     16  CG        12.8110    6.3940    6.7270 C.ar  176  PHE176     -0.0203
     17  CD1       13.7280    5.9140    5.7930 C.ar  176  PHE176     -0.0042
     18  CD2       11.8230    7.2790    6.2980 C.ar  176  PHE176     -0.0042
     19  CE1       13.6770    6.3310    4.4600 C.ar  176  PHE176     -0.0003
     20  CE2       11.7600    7.6980    4.9700 C.ar  176  PHE176     -0.0003
     21  CZ        12.6890    7.2190    4.0480 C.ar  176  PHE176     -0.0000
     22  N         16.5680    5.1670   12.7500 N.3   178  TYR178     -0.1227
     23  CA        17.7270    5.4790   13.5970 C.3   178  TYR178      0.1736
     24  C         17.3790    6.4620   14.7270 C.2   178  TYR178      0.2595
     25  O         17.7170    6.2250   15.8910 O.2   178  TYR178     -0.2718
     26  CB        18.8830    6.0270   12.7450 C.3   178  TYR178      0.0548
     27  CG        20.2860    5.7990   13.2950 C.ar  178  TYR178     -0.0200
     28  CD1       21.3980    5.8820   12.4540 C.ar  178  TYR178     -0.0009
     29  CD2       20.5050    5.4960   14.6410 C.ar  178  TYR178     -0.0009
     30  CE1       22.6910    5.6790   12.9400 C.ar  178  TYR178      0.0417
     31  CE2       21.7960    5.2870   15.1350 C.ar  178  TYR178      0.0417
     32  CZ        22.8800    5.3810   14.2780 C.ar  178  TYR178      0.1957
     33  OH        24.1520    5.1780   14.7590 O.3   178  TYR178     -0.2866
     34  N         16.6960    7.5540   14.3820 N.am  179  ARG179     -0.1980
     35  CA        16.3400    8.5870   15.3620 C.3   179  ARG179      0.1597
     36  C         15.2190    8.1650   16.3120 C.2   179  ARG179      0.2287
     37  O         15.1030    8.7040   17.4140 O.2   179  ARG179     -0.2864
     38  CB        15.9590    9.8990   14.6620 C.3   179  ARG179      0.0334
     39  CG        14.5410    9.9270   14.0750 C.3   179  ARG179      0.0492
     40  CD        14.3370   11.1180   13.1530 C.3   179  ARG179      0.2205
     41  NE        15.2910   11.1120   12.0470 N.pl3 179  ARG179     -0.0865
     42  CZ        15.3460   12.0240   11.0820 C.cat 179  ARG179      0.5346
     43  NH1       14.4930   13.0440   11.0580 N.pl3 179  ARG179      0.1354
     44  NH2       16.2640   11.9110   10.1340 N.pl3 179  ARG179      0.1354
     45  N         18.8150    3.4490    6.1180 N.3   202  ASP202     -0.1239
     46  CA        19.4790    4.6800    6.5350 C.3   202  ASP202      0.1674
     47  C         20.0680    4.5560    7.9400 C.2   202  ASP202      0.2266
     48  O         20.7770    5.4500    8.4110 O.2   202  ASP202     -0.2867
     49  CB        18.5280    5.8810    6.4500 C.3   202  ASP202      0.1410
     50  CG        18.6380    6.6230    5.1300 C.2   202  ASP202      0.3668
     51  OD1       18.7140    5.9680    4.0700 O.co2 202  ASP202     -0.2456
     52  OD2       18.6500    7.8690    5.1540 O.co2 202  ASP202     -0.2456
     53  N         21.8780    2.7820    0.3980 N.3   224  SER224     -0.1202
     54  CA        21.0250    3.9660    0.4280 C.3   224  SER224      0.2020
     55  C         21.2800    4.8770   -0.7720 C.2   224  SER224      0.2618
     56  O         22.1680    4.6210   -1.5870 O.2   224  SER224     -0.2717
     57  CB        21.2160    4.7390    1.7360 C.3   224  SER224      0.2103
     58  OG        20.2620    5.7800    1.8530 O.3   224  SER224     -0.2182
     59  N         20.4780    5.9320   -0.8680 N.am  225  VAL225     -0.1979
     60  CA        20.5730    6.9150   -1.9410 C.3   225  VAL225      0.1595
     61  C         20.5240    8.3250   -1.3490 C.2   225  VAL225      0.2287
     62  O         20.0310    8.5060   -0.2270 O.2   225  VAL225     -0.2864
     63  CB        19.4300    6.7450   -2.9860 C.3   225  VAL225      0.0276
     64  CG1       19.5910    5.4400   -3.7580 C.3   225  VAL225      0.0022
     65  CG2       18.0550    6.8220   -2.3220 C.3   225  VAL225      0.0022
     66  N         19.1610   11.8140   -0.3690 N.3   227  ALA227     -0.1231
     67  CA        17.8020   12.2350   -0.0490 C.3   227  ALA227      0.1694
     68  C         17.8090   13.5390    0.7320 C.2   227  ALA227      0.2592
     69  O         18.7510   13.8240    1.4760 O.2   227  ALA227     -0.2718
     70  CB        17.0710   11.1440    0.7330 C.3   227  ALA227      0.0304
     71  N         16.7510   14.3250    0.5570 N.am  228  ALA228     -0.1966
     72  CA        16.6050   15.5930    1.2610 C.3   228  ALA228      0.1728
     73  C         15.8600   15.4180    2.5810 C.2   228  ALA228      0.2616
     74  O         15.1400   14.4340    2.7770 O.2   228  ALA228     -0.2715
     75  CB        15.8950   16.6180    0.3710 C.3   228  ALA228      0.0334
     76  N         16.0690   16.3660    3.4930 N.am  229  GLU229     -0.1977
     77  CA        15.2510   16.4920    4.6930 C.3   229  GLU229      0.1602
     78  C         14.6540   17.8920    4.6940 C.2   229  GLU229      0.2287
     79  O         14.9670   18.6950    3.8160 O.2   229  GLU229     -0.2864
     80  CB        16.0720   16.2320    5.9650 C.3   229  GLU229      0.0415
     81  CG        17.1220   17.2930    6.2970 C.3   229  GLU229      0.1163
     82  CD        17.9160   16.9590    7.5510 C.2   229  GLU229      0.3649
     83  OE1       18.0490   15.7590    7.8780 O.co2 229  GLU229     -0.2457
     84  OE2       18.4150   17.8960    8.2090 O.co2 229  GLU229     -0.2457
     85  N         15.7960   11.1530   -3.5480 N.3   258  SER258     -0.1217
     86  CA        14.5400   11.3630   -2.8400 C.3   258  SER258      0.1889
     87  C         14.4720   12.8080   -2.3570 C.2   258  SER258      0.2288
     88  O         15.4340   13.3240   -1.7840 O.2   258  SER258     -0.2866
     89  CB        14.4260   10.3920   -1.6630 C.3   258  SER258      0.2089
     90  OG        13.3960   10.7820   -0.7680 O.3   258  SER258     -0.2183
     91  N          8.7760   12.5120   -2.0710 N.3   294  ARG294     -0.1245
     92  CA         8.5430   12.0270   -0.7170 C.3   294  ARG294      0.1563
     93  C          7.5730   12.9090    0.0760 C.2   294  ARG294      0.2260
     94  O          7.9700   13.9590    0.5890 O.2   294  ARG294     -0.2867
     95  CB         9.8790   11.8940    0.0250 C.3   294  ARG294      0.0307
     96  CG         9.7810   11.2360    1.3900 C.3   294  ARG294      0.0489
     97  CD        11.0750   11.4070    2.1650 C.3   294  ARG294      0.2205
     98  NE        10.8010   11.4490    3.5950 N.pl3 294  ARG294     -0.0865
     99  CZ        11.4920   12.1540    4.4820 C.cat 294  ARG294      0.5346
    100  NH1       11.1360   12.1090    5.7540 N.pl3 294  ARG294      0.1354
    101  NH2       12.5250   12.9020    4.1080 N.pl3 294  ARG294      0.1354
@<TRIPOS>BOND
     1    64    63    1
     2    85    86    1
     3    63    65    1
     4    63    60    1
     5    86    87    1
     6    86    89    1
     7    87    88    2
     8    91    92    1
     9    60    61    1
    10    60    59    1
    11    89    90    1
    12    56    55    2
    13    61    62    2
    14    59    55   am
    15    55    54    1
    16    92    95    1
    17    92    93    1
    18    66    67    1
    19    67    68    1
    20    67    70    1
    21    95    96    1
    22    93    94    2
    23    75    72    1
    24    53    54    1
    25    54    57    1
    26    71    68   am
    27    71    72    1
    28    68    69    2
    29    72    73    1
    30    96    97    1
    31    57    58    1
    32     7     9   ar
    33     7     6   ar
    34     9    10   ar
    35    97    98    1
    36    73    74    2
    37    73    76   am
    38     6     5    1
    39     6     8   ar
    40     5     2    1
    41    10     8   ar
    42     1     2    1
    43    76    77    1
    44    98    99    2
    45     2     3    1
    46    79    78    2
    47    21    19   ar
    48    21    20   ar
    49    51    50   ar
    50   101    99    1
    51    19    17   ar
    52    99   100    1
    53    77    78    1
    54    77    80    1
    55    20    18   ar
    56    50    52   ar
    57    50    49    1
    58     3     4    2
    59    17    16   ar
    60    80    81    1
    61    45    46    1
    62    81    82    1
    63    18    16   ar
    64    49    46    1
    65    46    47    1
    66    16    15    1
    67    82    83   ar
    68    82    84   ar
    69    47    48    2
    70    15    12    1
    71    11    12    1
    72    12    13    1
    73    13    14    2
    74    44    42    1
    75    43    42    1
    76    42    41    2
    77    41    40    1
    78    28    30   ar
    79    28    27   ar
    80    26    27    1
    81    26    23    1
    82    22    23    1
    83    30    32   ar
    84    40    39    1
    85    27    29   ar
    86    23    24    1
    87    39    38    1
    88    32    33    1
    89    32    31   ar
    90    34    24   am
    91    34    35    1
    92    29    31   ar
    93    38    35    1
    94    24    25    2
    95    35    36    1
    96    36    37    2
