@<TRIPOS>MOLECULE
tmp/2e5mA00.pdb
 185 180 0 0 0
SMALL
GASTEIGER

@<TRIPOS>ATOM
      1  N        -23.6020   27.7860   25.7750 N.3    35  ILE35      -0.1245
      2  CA       -22.6860   27.9640   26.8960 C.3    35  ILE35       0.1561
      3  C        -21.2580   28.1770   26.4080 C.2    35  ILE35       0.2260
      4  O        -20.3430   28.3990   27.2080 O.2    35  ILE35      -0.2867
      5  CB       -22.7060   26.7460   27.8360 C.3    35  ILE35       0.0252
      6  CG1      -22.2470   25.5030   27.0810 C.3    35  ILE35       0.0019
      7  CG2      -24.1060   26.5470   28.3910 C.3    35  ILE35       0.0019
      8  CD1      -22.0230   24.3020   27.9650 C.3    35  ILE35       0.0001
      9  N        -12.0920   25.3480   20.0290 N.3    96  LYS96      -0.1245
     10  CA       -13.4620   25.7490   19.7030 C.3    96  LYS96       0.1561
     11  C        -14.5960   25.2100   20.5420 C.2    96  LYS96       0.2260
     12  O        -14.7390   24.0080   20.7280 O.2    96  LYS96      -0.2867
     13  CB       -13.7990   25.4540   18.2320 C.3    96  LYS96       0.0271
     14  CG       -13.8490   23.9970   17.8750 C.3    96  LYS96       0.0035
     15  CD       -14.7290   23.7460   16.6610 C.3    96  LYS96       0.0206
     16  CE       -16.1950   23.9020   17.0120 C.3    96  LYS96       0.1093
     17  NZ       -16.6540   22.9030   18.0280 N.3    96  LYS96      -0.1314
     18  N        -18.6810   24.5230   21.6010 N.3    98  PRO98      -0.2102
     19  CA       -19.7250   23.7750   20.8960 C.3    98  PRO98       0.1504
     20  C        -20.4540   24.6380   19.8680 C.2    98  PRO98       0.2576
     21  O        -20.7480   25.8060   20.1240 O.2    98  PRO98      -0.2718
     22  CB       -20.6430   23.3330   22.0360 C.3    98  PRO98       0.0282
     23  CG       -20.5620   24.4980   22.9780 C.3    98  PRO98       0.0208
     24  CD       -19.0690   24.7770   23.0020 C.3    98  PRO98       0.0893
     25  N        -20.7380   24.0670   18.7050 N.am   99  LEU99      -0.1966
     26  CA       -21.4510   24.7990   17.6560 C.3    99  LEU99       0.1728
     27  C        -22.7120   24.0580   17.2520 C.2    99  LEU99       0.2616
     28  O        -22.6700   22.8550   16.9750 O.2    99  LEU99      -0.2715
     29  CB       -20.5780   24.9810   16.4120 C.3    99  LEU99       0.0311
     30  CG       -19.3980   25.9440   16.4790 C.3    99  LEU99       0.0022
     31  CD1      -18.6450   25.8900   15.1600 C.3    99  LEU99       0.0001
     32  CD2      -19.8860   27.3540   16.7600 C.3    99  LEU99       0.0001
     33  N        -23.8290   24.7770   17.2150 N.am  100  GLU100     -0.1963
     34  CA       -25.0950   24.1760   16.8260 C.3   100  GLU100      0.1733
     35  C        -25.1370   23.9270   15.3260 C.2   100  GLU100      0.2617
     36  O        -24.8360   24.8170   14.5260 O.2   100  GLU100     -0.2715
     37  CB       -26.2610   25.0780   17.2360 C.3   100  GLU100      0.0429
     38  CG       -26.6260   24.9510   18.7020 C.3   100  GLU100      0.1163
     39  CD       -27.7680   25.8530   19.1080 C.2   100  GLU100      0.3649
     40  OE1      -28.1630   25.8050   20.2950 O.co2 100  GLU100     -0.2457
     41  OE2      -28.2650   26.6080   18.2430 O.co2 100  GLU100     -0.2457
     42  N        -25.5030   22.7040   14.9550 N.am  101  THR101     -0.1951
     43  CA       -25.6000   22.3130   13.5510 C.3   101  THR101      0.1897
     44  C        -27.0210   22.5440   13.0280 C.2   101  THR101      0.2313
     45  O        -27.9750   21.9190   13.5020 O.2   101  THR101     -0.2863
     46  CB       -25.2480   20.8160   13.3690 C.3   101  THR101      0.1794
     47  OG1      -26.1220   20.0180   14.1800 O.3   101  THR101     -0.2208
     48  CG2      -23.7970   20.5500   13.7680 C.3   101  THR101      0.0378
     49  N        -17.7290   22.3770   12.0450 N.3   105  ASN105     -0.1240
     50  CA       -16.7470   21.4160   12.5100 C.3   105  ASN105      0.1653
     51  C        -16.1900   20.6620   11.3170 C.2   105  ASN105      0.2266
     52  O        -14.9800   20.6020   11.1340 O.2   105  ASN105     -0.2867
     53  CB       -17.3740   20.4380   13.4950 C.3   105  ASN105      0.1155
     54  CG       -17.7520   21.1020   14.8030 C.2   105  ASN105      0.2627
     55  OD1      -18.2280   20.4530   15.7280 O.2   105  ASN105     -0.2716
     56  ND2      -17.5400   22.4110   14.8840 N.am  105  ASN105     -0.0877
     57  N        -19.8790   12.3350   30.0120 N.3   305  ILE305     -0.1231
     58  CA       -19.3400   12.7190   28.7160 C.3   305  ILE305      0.1692
     59  C        -19.0050   14.2100   28.6830 C.2   305  ILE305      0.2592
     60  O        -18.0190   14.6160   28.0640 O.2   305  ILE305     -0.2718
     61  CB       -20.3290   12.3760   27.5680 C.3   305  ILE305      0.0266
     62  CG1      -19.5810   12.3690   26.2280 C.3   305  ILE305      0.0019
     63  CG2      -21.4680   13.3930   27.5300 C.3   305  ILE305      0.0020
     64  CD1      -20.3960   11.8480   25.0520 C.3   305  ILE305      0.0001
     65  N        -19.8180   15.0060   29.3790 N.am  306  GLY306     -0.1957
     66  CA       -19.6200   16.4480   29.4330 C.3   306  GLY306      0.1869
     67  C        -18.3920   16.9330   30.1910 C.2   306  GLY306      0.2309
     68  O        -18.3130   18.1040   30.5660 O.2   306  GLY306     -0.2863
     69  N        -11.8450   20.5600   21.1610 N.3   321  GLU321     -0.1231
     70  CA       -13.1770   20.8490   21.6630 C.3   321  GLU321      0.1699
     71  C        -13.6290   19.8530   22.7200 C.2   321  GLU321      0.2592
     72  O        -12.9940   18.8240   22.9390 O.2   321  GLU321     -0.2718
     73  CB       -14.1830   20.8180   20.5120 C.3   321  GLU321      0.0402
     74  CG       -13.9360   19.6610   19.5420 C.3   321  GLU321      0.1161
     75  CD       -15.1290   19.3510   18.6560 C.2   321  GLU321      0.3649
     76  OE1      -15.8780   20.2870   18.3030 O.co2 321  GLU321     -0.2457
     77  OE2      -15.3070   18.1640   18.3010 O.co2 321  GLU321     -0.2457
     78  N        -14.7370   20.1870   23.3730 N.am  322  ALA322     -0.1966
     79  CA       -15.3270   19.3360   24.3930 C.3   322  ALA322      0.1728
     80  C        -16.2370   18.3590   23.6660 C.2   322  ALA322      0.2616
     81  O        -16.6590   18.6180   22.5450 O.2   322  ALA322     -0.2715
     82  CB       -16.1320   20.1710   25.3650 C.3   322  ALA322      0.0334
     83  N        -16.5450   17.2420   24.3090 N.am  323  ILE323     -0.1963
     84  CA       -17.3950   16.2300   23.7060 C.3   323  ILE323      0.1727
     85  C        -18.8870   16.4940   23.9170 C.2   323  ILE323      0.2616
     86  O        -19.7250   15.6430   23.6150 O.2   323  ILE323     -0.2715
     87  CB       -17.0380   14.8350   24.2640 C.3   323  ILE323      0.0290
     88  CG1      -15.5170   14.6250   24.1870 C.3   323  ILE323      0.0022
     89  CG2      -17.7480   13.7560   23.4700 C.3   323  ILE323      0.0023
     90  CD1      -14.9380   14.8130   22.7650 C.3   323  ILE323      0.0001
     91  N        -19.2350   17.6700   24.4190 N.am  324  HIS324     -0.1959
     92  CA       -20.6380   17.9660   24.6460 C.3   324  HIS324      0.1787
     93  C        -21.1550   19.0030   23.6670 C.2   324  HIS324      0.2621
     94  O        -20.3810   19.5580   22.8790 O.2   324  HIS324     -0.2715
     95  CB       -20.8690   18.4310   26.0950 C.3   324  HIS324      0.0785
     96  CG       -20.1520   19.6950   26.4660 C.ar  324  HIS324      0.0821
     97  ND1      -20.4150   20.9070   25.8630 N.ar  324  HIS324     -0.2267
     98  CD2      -19.2220   19.9460   27.4170 C.ar  324  HIS324      0.1154
     99  CE1      -19.6810   21.8490   26.4280 C.ar  324  HIS324      0.1986
    100  NE2      -18.9470   21.2920   27.3760 N.ar  324  HIS324     -0.2212
    101  N        -22.4660   19.2470   23.7190 N.am  325  GLY325     -0.1940
    102  CA       -23.0950   20.2160   22.8370 C.3   325  GLY325      0.2014
    103  C        -23.1920   21.6240   23.4080 C.2   325  GLY325      0.2640
    104  O        -22.5400   21.9530   24.3960 O.2   325  GLY325     -0.2714
    105  N        -24.0260   22.4500   22.7850 N.am  326  THR326     -0.1936
    106  CA       -24.2050   23.8350   23.1970 C.3   326  THR326      0.2028
    107  C        -25.0810   24.0360   24.4400 C.2   326  THR326      0.2642
    108  O        -25.2020   25.1590   24.9250 O.2   326  THR326     -0.2714
    109  CB       -24.8020   24.6890   22.0390 C.3   326  THR326      0.1808
    110  OG1      -26.1560   24.2940   21.8050 O.3   326  THR326     -0.2208
    111  CG2      -23.9920   24.5040   20.7460 C.3   326  THR326      0.0379
    112  N        -25.6850   22.9620   24.9470 N.am  327  ALA327     -0.1963
    113  CA       -26.5440   23.0350   26.1360 C.3   327  ALA327      0.1713
    114  C        -27.3420   24.3440   26.2180 C.2   327  ALA327      0.2458
    115  O        -27.1870   25.1150   27.1640 O.2   327  ALA327     -0.2730
    116  CB       -25.6950   22.8780   27.3960 C.3   327  ALA327      0.0333
    117  N        -28.2200   24.6030   25.2370 N.am  328  PRO328     -0.2716
    118  CA       -28.9980   25.8450   25.2690 C.3   328  PRO328      0.1536
    119  C        -29.7530   26.1900   26.5520 C.2   328  PRO328      0.2598
    120  O        -29.9300   27.3650   26.8660 O.2   328  PRO328     -0.2715
    121  CB       -29.9220   25.7140   24.0480 C.3   328  PRO328      0.0310
    122  CG       -29.9710   24.2430   23.7810 C.3   328  PRO328      0.0237
    123  CD       -28.5570   23.8050   24.0460 C.3   328  PRO328      0.0939
    124  N        -30.1910   25.1930   27.3060 N.am  329  LYS329     -0.1964
    125  CA       -30.9310   25.4900   28.5280 C.3   329  LYS329      0.1728
    126  C        -30.1000   26.2480   29.5670 C.2   329  LYS329      0.2616
    127  O        -30.6440   26.9410   30.4270 O.2   329  LYS329     -0.2715
    128  CB       -31.4890   24.1990   29.1520 C.3   329  LYS329      0.0311
    129  CG       -30.4420   23.1900   29.6320 C.3   329  LYS329      0.0038
    130  CD       -29.6540   22.6100   28.4680 C.3   329  LYS329      0.0206
    131  CE       -30.5800   21.9950   27.4230 C.3   329  LYS329      0.1093
    132  NZ       -29.8480   21.6540   26.1760 N.3   329  LYS329     -0.1314
    133  N        -28.7820   26.1360   29.4730 N.am  330  TYR330     -0.1974
    134  CA       -27.9120   26.7950   30.4370 C.3   330  TYR330      0.1639
    135  C        -27.1560   27.9890   29.8910 C.2   330  TYR330      0.2290
    136  O        -26.4010   28.6250   30.6200 O.2   330  TYR330     -0.2864
    137  CB       -26.9260   25.7790   31.0030 C.3   330  TYR330      0.0560
    138  CG       -27.6000   24.6260   31.7100 C.ar  330  TYR330     -0.0198
    139  CD1      -27.2030   23.3180   31.4680 C.ar  330  TYR330     -0.0009
    140  CD2      -28.6400   24.8430   32.6180 C.ar  330  TYR330     -0.0009
    141  CE1      -27.8210   22.2470   32.1070 C.ar  330  TYR330      0.0417
    142  CE2      -29.2670   23.7750   33.2660 C.ar  330  TYR330      0.0417
    143  CZ       -28.8490   22.4810   33.0030 C.ar  330  TYR330      0.1957
    144  OH       -29.4410   21.4090   33.6280 O.3   330  TYR330     -0.2866
    145  N        -23.1710   25.8980   33.5150 N.3   336  ALA336     -0.1231
    146  CA       -22.4690   24.8750   32.7440 C.3   336  ALA336      0.1694
    147  C        -21.0870   24.4910   33.2750 C.2   336  ALA336      0.2592
    148  O        -20.3460   25.3270   33.7980 O.2   336  ALA336     -0.2718
    149  CB       -22.3540   25.3310   31.2980 C.3   336  ALA336      0.0304
    150  N        -20.7450   23.2150   33.1240 N.am  337  ASN337     -0.1974
    151  CA       -19.4550   22.6920   33.5540 C.3   337  ASN337      0.1688
    152  C        -18.4210   22.9470   32.4370 C.2   337  ASN337      0.2292
    153  O        -18.5920   22.4760   31.3110 O.2   337  ASN337     -0.2864
    154  CB       -19.5830   21.2010   33.8000 C.3   337  ASN337      0.1181
    155  CG       -18.3170   20.5940   34.3660 C.2   337  ASN337      0.2629
    156  OD1      -17.2260   21.1510   34.2320 O.2   337  ASN337     -0.2716
    157  ND2      -18.4560   19.4370   34.9930 N.am  337  ASN337     -0.0877
    158  N        -23.0220   22.2170   39.2380 N.3   376  GLN376     -0.1231
    159  CA       -24.2320   21.4470   39.5080 C.3   376  GLN376      0.1698
    160  C        -24.3340   20.0420   38.9070 C.2   376  GLN376      0.2592
    161  O        -24.7380   19.1060   39.6070 O.2   376  GLN376     -0.2718
    162  CB       -25.4730   22.2700   39.1390 C.3   376  GLN376      0.0381
    163  CG       -25.6920   22.5050   37.6520 C.3   376  GLN376      0.0905
    164  CD       -26.3270   21.3100   36.9700 C.2   376  GLN376      0.2608
    165  OE1      -27.2840   20.7260   37.4890 O.2   376  GLN376     -0.2717
    166  NE2      -25.8080   20.9420   35.8030 N.am  376  GLN376     -0.0878
    167  N        -23.9660   19.8790   37.6360 N.am  377  ASP377     -0.1974
    168  CA       -24.0440   18.5700   36.9940 C.3   377  ASP377      0.1709
    169  C        -23.3440   17.4910   37.8180 C.2   377  ASP377      0.2293
    170  O        -23.5460   16.2990   37.5940 O.2   377  ASP377     -0.2864
    171  CB       -23.4630   18.6200   35.5740 C.3   377  ASP377      0.1436
    172  CG       -22.0610   19.1800   35.5360 C.2   377  ASP377      0.3671
    173  OD1      -21.8850   20.3770   35.8540 O.co2 377  ASP377     -0.2456
    174  OD2      -21.1350   18.4220   35.1900 O.co2 377  ASP377     -0.2456
    175  N        -25.3500   17.5660   42.1200 N.3   380  ARG380     -0.1245
    176  CA       -26.5750   16.7620   42.1870 C.3   380  ARG380      0.1563
    177  C        -26.4310   15.4230   42.9010 C.2   380  ARG380      0.2260
    178  O        -27.3070   15.0340   43.6720 O.2   380  ARG380     -0.2867
    179  CB       -27.0920   16.4140   40.7860 C.3   380  ARG380      0.0307
    180  CG       -27.4050   17.5360   39.8250 C.3   380  ARG380      0.0489
    181  CD       -27.0370   17.0410   38.4270 C.3   380  ARG380      0.2205
    182  NE       -27.7980   17.6510   37.3410 N.pl3 380  ARG380     -0.0865
    183  CZ       -29.0350   17.2960   37.0090 C.cat 380  ARG380      0.5346
    184  NH1      -29.6510   17.9020   36.0000 N.pl3 380  ARG380      0.1354
    185  NH2      -29.6540   16.3330   37.6860 N.pl3 380  ARG380      0.1354
@<TRIPOS>BOND
     1    52    51    2
     2    51    50    1
     3    49    50    1
     4    50    53    1
     5    44    45    2
     6    44    43    1
     7    46    43    1
     8    46    48    1
     9    46    47    1
    10    53    54    1
    11    43    42    1
    12    36    35    2
    13    54    56   am
    14    54    55    2
    15    42    35   am
    16    31    30    1
    17    35    34    1
    18    29    30    1
    19    29    26    1
    20    30    32    1
    21    15    16    1
    22    15    14    1
    23    34    33    1
    24    34    37    1
    25    28    27    2
    26    16    17    1
    27    33    27   am
    28    37    38    1
    29    27    26    1
    30    26    25    1
    31    14    13    1
    32    13    10    1
    33    41    39   ar
    34    77    75   ar
    35    76    75   ar
    36    75    74    1
    37    38    39    1
    38    25    20   am
    39    39    40   ar
    40    74    73    1
    41    10     9    1
    42    10    11    1
    43    20    21    2
    44    20    19    1
    45    73    70    1
    46    11    12    2
    47   111   109    1
    48    19    18    1
    49    19    22    1
    50    69    70    1
    51    18    24    1
    52    70    71    1
    53   110   109    1
    54    22    23    1
    55   109   106    1
    56    81    80    2
    57    71    72    2
    58    71    78   am
    59    90    88    1
    60   105   106    1
    61   105   103   am
    62   102   103    1
    63   102   101    1
    64    94    93    2
    65    23    24    1
    66   106   107    1
    67    78    79    1
    68   103   104    2
    69    89    87    1
    70    86    85    2
    71    80    83   am
    72    80    79    1
    73    93   101   am
    74    93    92    1
    75    84    85    1
    76    84    87    1
    77    84    83    1
    78   122   123    1
    79   122   121    1
    80    85    91   am
    81   123   117    1
    82   121   118    1
    83    88    87    1
    84    79    82    1
    85    91    92    1
    86   107   108    2
    87   107   112   am
    88    92    95    1
    89   112   113    1
    90    64    62    1
    91   117   118    1
    92   117   114   am
    93   118   119    1
    94     1     2    1
    95    97    99   ar
    96    97    96   ar
    97    95    96    1
    98   113   114    1
    99   113   116    1
   100   132   131    1
   101   114   115    2
   102    62    61    1
   103     3     2    1
   104     3     4    2
   105    99   100   ar
   106    96    98   ar
   107   119   120    2
   108   119   124   am
   109     2     5    1
   110     6     5    1
   111     6     8    1
   112   124   125    1
   113   100    98   ar
   114   131   130    1
   115    63    61    1
   116    61    58    1
   117     5     7    1
   118    60    59    2
   119   130   129    1
   120   125   128    1
   121   125   126    1
   122    59    58    1
   123    59    65   am
   124    58    57    1
   125   128   129    1
   126    65    66    1
   127    66    67    1
   128   133   126   am
   129   133   134    1
   130   126   127    2
   131   135   134    1
   132   135   136    2
   133    67    68    2
   134   134   137    1
   135   137   138    1
   136   149   146    1
   137   153   152    2
   138   139   138   ar
   139   139   141   ar
   140   138   140   ar
   141   141   143   ar
   142   152   151    1
   143   140   142   ar
   144   146   147    1
   145   146   145    1
   146   143   142   ar
   147   143   144    1
   148   150   147   am
   149   150   151    1
   150   147   148    2
   151   151   154    1
   152   154   155    1
   153   156   155    2
   154   155   157   am
   155   174   172   ar
   156   172   171    1
   157   172   173   ar
   158   171   168    1
   159   166   164   am
   160   184   183    1
   161   164   165    2
   162   164   163    1
   163   168   167    1
   164   168   169    1
   165   183   182    2
   166   183   185    1
   167   182   181    1
   168   170   169    2
   169   167   160   am
   170   163   162    1
   171   181   180    1
   172   160   159    1
   173   160   161    2
   174   162   159    1
   175   158   159    1
   176   180   179    1
   177   179   176    1
   178   175   176    1
   179   176   177    1
   180   177   178    2
