@<TRIPOS>MOLECULE
tmp/2e5wA00.pdb
 161 157 0 0 0
SMALL
GASTEIGER

@<TRIPOS>ATOM
      1  N          3.8070    9.9020   36.6400 N.3     8  GLU8       -0.1245
      2  CA         2.5640    9.3190   37.0900 C.3     8  GLU8        0.1567
      3  C          2.9460    7.8840   37.4040 C.2     8  GLU8        0.2260
      4  O          3.4560    7.1680   36.5380 O.2     8  GLU8       -0.2867
      5  CB         1.4700    9.3080   36.0190 C.3     8  GLU8        0.0388
      6  CG         0.2890    8.4450   36.4860 C.3     8  GLU8        0.1160
      7  CD        -0.8970    8.4260   35.5330 C.2     8  GLU8        0.3649
      8  OE1       -0.8780    9.1520   34.5190 O.co2   8  GLU8       -0.2457
      9  OE2       -1.8570    7.6770   35.8160 O.co2   8  GLU8       -0.2457
     10  N          2.0400    4.0330   38.3320 N.3    10  TYR10      -0.1241
     11  CA         0.9950    3.0470   38.1050 C.3    10  TYR10       0.1605
     12  C          1.2200    1.8290   38.9930 C.2    10  TYR10       0.2264
     13  O          2.2510    1.7170   39.6540 O.2    10  TYR10      -0.2867
     14  CB         1.0180    2.5850   36.6420 C.3    10  TYR10       0.0534
     15  CG         0.5020    3.5880   35.6380 C.ar   10  TYR10      -0.0201
     16  CD1        1.2970    4.6530   35.2020 C.ar   10  TYR10      -0.0009
     17  CD2       -0.7780    3.4510   35.0960 C.ar   10  TYR10      -0.0009
     18  CE1        0.8280    5.5590   34.2370 C.ar   10  TYR10       0.0417
     19  CE2       -1.2580    4.3460   34.1380 C.ar   10  TYR10       0.0417
     20  CZ        -0.4540    5.3950   33.7120 C.ar   10  TYR10       0.1957
     21  OH        -0.9410    6.2740   32.7620 O.3    10  TYR10      -0.2866
     22  N         -2.8700   12.1480   37.6210 N.3    51  THR51      -0.1203
     23  CA        -2.8640   11.2820   36.4490 C.3    51  THR51       0.1994
     24  C         -2.8980   12.1210   35.1730 C.2    51  THR51       0.2618
     25  O         -3.6320   13.1060   35.0840 O.2    51  THR51      -0.2717
     26  CB        -4.0600   10.3290   36.4500 C.3    51  THR51       0.1784
     27  OG1       -5.2520   11.0650   36.1660 O.3    51  THR51      -0.2211
     28  CG2       -4.1910    9.6480   37.8150 C.3    51  THR51       0.0376
     29  N         -2.0910   11.7280   34.1900 N.am   52  VAL52      -0.1965
     30  CA        -2.0210   12.4510   32.9290 C.3    52  VAL52       0.1727
     31  C         -3.3280   12.3530   32.1430 C.2    52  VAL52       0.2616
     32  O         -3.8440   11.2580   31.9100 O.2    52  VAL52      -0.2715
     33  CB        -0.8800   11.9030   32.0380 C.3    52  VAL52       0.0290
     34  CG1       -0.7940   12.7020   30.7350 C.3    52  VAL52       0.0023
     35  CG2        0.4410   11.9550   32.7900 C.3    52  VAL52       0.0023
     36  N         -3.8660   13.5030   31.7510 N.am   53  GLN53      -0.1963
     37  CA        -5.0920   13.5300   30.9640 C.3    53  GLN53       0.1733
     38  C         -4.6880   13.6750   29.5110 C.2    53  GLN53       0.2616
     39  O         -5.3160   13.0960   28.6210 O.2    53  GLN53      -0.2715
     40  CB        -5.9870   14.6970   31.3890 C.3    53  GLN53       0.0408
     41  CG        -6.5420   14.5590   32.8010 C.3    53  GLN53       0.0908
     42  CD        -7.3180   13.2630   33.0070 C.2    53  GLN53       0.2608
     43  OE1       -8.3910   13.0580   32.4220 O.2    53  GLN53      -0.2717
     44  NE2       -6.7790   12.3810   33.8410 N.am   53  GLN53      -0.0878
     45  N         -3.6160   14.4300   29.2750 N.am   54  LEU54      -0.1977
     46  CA        -3.1160   14.6310   27.9220 C.3    54  LEU54       0.1596
     47  C         -1.8540   15.4820   27.8790 C.2    54  LEU54       0.2287
     48  O         -1.5100   16.1490   28.8540 O.2    54  LEU54      -0.2864
     49  CB        -4.1900   15.3270   27.0740 C.3    54  LEU54       0.0297
     50  CG        -4.5110   16.7770   27.4740 C.3    54  LEU54       0.0022
     51  CD1       -3.5960   17.7250   26.7160 C.3    54  LEU54       0.0001
     52  CD2       -5.9600   17.1190   27.1530 C.3    54  LEU54       0.0001
     53  N         -4.7200    9.7980   21.3520 N.3    62  TYR62      -0.1227
     54  CA        -5.8030    9.3150   22.2090 C.3    62  TYR62       0.1736
     55  C         -7.1700    9.6990   21.6360 C.2    62  TYR62       0.2595
     56  O         -8.0810    8.8860   21.5390 O.2    62  TYR62      -0.2718
     57  CB        -5.6410    9.9270   23.6070 C.3    62  TYR62       0.0548
     58  CG        -6.8750    9.6970   24.4210 C.ar   62  TYR62      -0.0200
     59  CD1       -7.0960    8.4580   25.0170 C.ar   62  TYR62      -0.0009
     60  CD2       -7.8030   10.7240   24.6120 C.ar   62  TYR62      -0.0009
     61  CE1       -8.2260    8.2480   25.7990 C.ar   62  TYR62       0.0417
     62  CE2       -8.9380   10.5080   25.3840 C.ar   62  TYR62       0.0417
     63  CZ        -9.1510    9.2740   25.9690 C.ar   62  TYR62       0.1957
     64  OH       -10.2810    9.0480   26.7310 O.3    62  TYR62      -0.2866
     65  N         -7.3580   10.9640   21.2770 N.am   63  HIS63      -0.1975
     66  CA        -8.6560   11.3970   20.7780 C.3    63  HIS63       0.1656
     67  C         -9.0590   10.7800   19.4400 C.2    63  HIS63       0.2291
     68  O        -10.2400   10.5400   19.2160 O.2    63  HIS63      -0.2864
     69  CB        -8.7160   12.9230   20.7260 C.3    63  HIS63       0.0771
     70  CG        -8.6960   13.5560   22.0810 C.ar   63  HIS63       0.0820
     71  ND1       -7.6580   14.3500   22.5210 N.ar   63  HIS63      -0.2267
     72  CD2       -9.5560   13.4500   23.1220 C.ar   63  HIS63       0.1154
     73  CE1       -7.8780   14.7010   23.7760 C.ar   63  HIS63       0.1986
     74  NE2       -9.0220   14.1680   24.1640 N.ar   63  HIS63      -0.2212
     75  N        -14.6300   14.6510   28.6830 N.3    85  GLY85      -0.1225
     76  CA       -13.9920   15.3950   27.6100 C.3    85  GLY85       0.1811
     77  C        -13.8720   16.8860   27.8780 C.2    85  GLY85       0.2280
     78  O        -13.9810   17.6980   26.9570 O.2    85  GLY85      -0.2866
     79  N        -11.4710   18.7820   28.1890 N.3    87  ASP87      -0.1239
     80  CA       -10.4160   19.4550   27.4400 C.3    87  ASP87       0.1674
     81  C        -10.8170   19.7990   26.0030 C.2    87  ASP87       0.2266
     82  O        -10.1070   20.5310   25.3100 O.2    87  ASP87      -0.2867
     83  CB        -9.1670   18.5790   27.4390 C.3    87  ASP87       0.1410
     84  CG        -9.4530   17.1760   26.9540 C.2    87  ASP87       0.3668
     85  OD1       -9.5560   16.9800   25.7260 O.co2  87  ASP87      -0.2456
     86  OD2       -9.5910   16.2730   27.8050 O.co2  87  ASP87      -0.2456
     87  N        -15.4580    9.8150   27.6920 N.3   161  ASP161     -0.1225
     88  CA       -14.0760   10.2540   27.7870 C.3   161  ASP161      0.1805
     89  C        -13.8780   10.8760   29.1600 C.2   161  ASP161      0.2598
     90  O        -13.6940   12.0840   29.2830 O.2   161  ASP161     -0.2718
     91  CB       -13.7960   11.2770   26.6790 C.3   161  ASP161      0.1424
     92  CG       -12.4210   11.9000   26.7870 C.2   161  ASP161      0.3668
     93  OD1      -11.4870   11.2030   27.2280 O.co2 161  ASP161     -0.2456
     94  OD2      -12.2730   13.0820   26.4120 O.co2 161  ASP161     -0.2456
     95  N        -13.9290   10.0430   30.1920 N.am  162  SER162     -0.1938
     96  CA       -13.7720   10.5190   31.5600 C.3   162  SER162      0.2055
     97  C        -12.4140   10.1490   32.1450 C.2   162  SER162      0.2644
     98  O        -11.5190    9.6680   31.4410 O.2   162  SER162     -0.2714
     99  CB       -14.8710    9.9260   32.4430 C.3   162  SER162      0.2130
    100  OG       -14.7570    8.5090   32.5070 O.3   162  SER162     -0.2179
    101  N        -12.2810   10.3870   33.4450 N.am  163  THR163     -0.1936
    102  CA       -11.0680   10.0680   34.1900 C.3   163  THR163      0.2028
    103  C        -11.1330    8.5760   34.5110 C.2   163  THR163      0.2642
    104  O        -12.0790    7.8980   34.1030 O.2   163  THR163     -0.2714
    105  CB       -11.0210   10.8600   35.5200 C.3   163  THR163      0.1808
    106  OG1      -12.2930   10.7660   36.1700 O.3   163  THR163     -0.2208
    107  CG2      -10.6940   12.3240   35.2710 C.3   163  THR163      0.0379
    108  N        -10.1380    8.0590   35.2310 N.am  164  ASP164     -0.1971
    109  CA       -10.1470    6.6480   35.5990 C.3   164  ASP164      0.1709
    110  C        -11.3710    6.4160   36.4920 C.2   164  ASP164      0.2293
    111  O        -11.8410    7.3360   37.1590 O.2   164  ASP164     -0.2864
    112  CB        -8.8690    6.2630   36.3550 C.3   164  ASP164      0.1436
    113  CG        -7.6160    6.3610   35.4900 C.2   164  ASP164      0.3671
    114  OD1       -7.6860    6.0250   34.2850 O.co2 164  ASP164     -0.2456
    115  OD2       -6.5530    6.7540   36.0250 O.co2 164  ASP164     -0.2456
    116  N        -12.9640    4.7200   27.0330 N.3   194  GLN194     -0.1245
    117  CA       -11.5590    4.3860   27.2380 C.3   194  GLN194      0.1566
    118  C        -11.6410    3.3930   28.3950 C.2   194  GLN194      0.2260
    119  O        -12.4770    3.5560   29.2800 O.2   194  GLN194     -0.2867
    120  CB       -10.7560    5.6430   27.6100 C.3   194  GLN194      0.0367
    121  CG       -11.2440    6.4300   28.8380 C.3   194  GLN194      0.0905
    122  CD       -10.6870    5.8880   30.1490 C.2   194  GLN194      0.2608
    123  OE1       -9.6210    5.2730   30.1720 O.2   194  GLN194     -0.2717
    124  NE2      -11.3950    6.1380   31.2490 N.am  194  GLN194     -0.0878
    125  N         -3.8730   -1.7140   34.0910 N.3   201  PHE201     -0.1241
    126  CA        -5.2610   -1.5750   34.5700 C.3   201  PHE201      0.1605
    127  C         -6.1250   -2.7220   34.0180 C.2   201  PHE201      0.2264
    128  O         -7.3110   -2.5780   33.7230 O.2   201  PHE201     -0.2867
    129  CB        -5.8380   -0.2400   34.0540 C.3   201  PHE201      0.0534
    130  CG        -5.3400    0.9860   34.7990 C.ar  201  PHE201     -0.0203
    131  CD1       -4.4500    0.8670   35.8630 C.ar  201  PHE201     -0.0042
    132  CD2       -5.7700    2.2390   34.3970 C.ar  201  PHE201     -0.0042
    133  CE1       -3.9940    2.0160   36.5090 C.ar  201  PHE201     -0.0003
    134  CE2       -5.3090    3.3850   35.0450 C.ar  201  PHE201     -0.0003
    135  CZ        -4.4180    3.2750   36.1030 C.ar  201  PHE201     -0.0000
    136  N          0.2720    8.1310   28.3620 N.3   229  TYR229     -0.1241
    137  CA        -0.3410    7.1420   29.2610 C.3   229  TYR229      0.1605
    138  C          0.5120    5.8840   29.2600 C.2   229  TYR229      0.2264
    139  O          1.3220    5.6940   28.3500 O.2   229  TYR229     -0.2867
    140  CB        -1.7150    6.6890   28.7610 C.3   229  TYR229      0.0534
    141  CG        -2.8160    7.7200   28.6450 C.ar  229  TYR229     -0.0201
    142  CD1       -2.6540    9.0290   29.1030 C.ar  229  TYR229     -0.0009
    143  CD2       -4.0470    7.3590   28.0940 C.ar  229  TYR229     -0.0009
    144  CE1       -3.7010    9.9530   29.0140 C.ar  229  TYR229      0.0417
    145  CE2       -5.0920    8.2680   28.0010 C.ar  229  TYR229      0.0417
    146  CZ        -4.9160    9.5600   28.4600 C.ar  229  TYR229      0.1957
    147  OH        -5.9570   10.4490   28.3440 O.3   229  TYR229     -0.2866
    148  N         -3.2480    1.7080   25.6140 N.3   233  TRP233     -0.1241
    149  CA        -4.4890    1.9560   26.3370 C.3   233  TRP233      0.1605
    150  C         -5.6100    1.1460   25.6960 C.2   233  TRP233      0.2264
    151  O         -5.6590    0.9960   24.4710 O.2   233  TRP233     -0.2867
    152  CB        -4.8400    3.4440   26.2930 C.3   233  TRP233      0.0550
    153  CG        -5.6080    3.8990   27.4870 C.ar  233  TRP233      0.0003
    154  CD1       -6.9440    4.1810   27.5550 C.ar  233  TRP233      0.0946
    155  CD2       -5.0810    4.1270   28.7990 C.ar  233  TRP233      0.0152
    156  NE1       -7.2810    4.5760   28.8310 N.ar  233  TRP233     -0.2442
    157  CE2       -6.1550    4.5510   29.6150 C.ar  233  TRP233      0.0810
    158  CE3       -3.8010    4.0140   29.3660 C.ar  233  TRP233      0.0012
    159  CZ2       -5.9890    4.8660   30.9750 C.ar  233  TRP233      0.0191
    160  CZ3       -3.6360    4.3270   30.7200 C.ar  233  TRP233      0.0001
    161  CH2       -4.7250    4.7480   31.5060 C.ar  233  TRP233      0.0015
@<TRIPOS>BOND
     1    68    67    2
     2    67    66    1
     3    69    66    1
     4    69    70    1
     5    66    65    1
     6    65    55   am
     7    53    54    1
     8    56    55    2
     9    55    54    1
    10    70    71   ar
    11    70    72   ar
    12    54    57    1
    13    71    73   ar
    14    72    74   ar
    15    57    58    1
    16    73    74   ar
    17    58    60   ar
    18    58    59   ar
    19   151   150    2
    20    60    62   ar
    21    59    61   ar
    22    82    81    2
    23    62    63   ar
    24   148   149    1
    25   150   149    1
    26    85    84   ar
    27    61    63   ar
    28    63    64    1
    29    81    80    1
    30   152   149    1
    31   152   153    1
    32    94    92   ar
    33    91    92    1
    34    91    88    1
    35    51    50    1
    36    92    93   ar
    37    84    83    1
    38    84    86   ar
    39    78    77    2
    40   116   117    1
    41    49    50    1
    42    49    46    1
    43    52    50    1
    44   117   120    1
    45   117   118    1
    46    83    80    1
    47    80    79    1
    48   153   154   ar
    49   153   155   ar
    50   154   156   ar
    51    76    77    1
    52    76    75    1
    53   120   121    1
    54    87    88    1
    55    88    89    1
    56    47    46    1
    57    47    48    2
    58    46    45    1
    59   145   143   ar
    60   145   146   ar
    61   143   141   ar
    62   147   146    1
    63   139   138    2
    64   136   137    1
    65   118   119    2
    66   146   144   ar
    67    39    38    2
    68   141   140    1
    69   141   142   ar
    70   140   137    1
    71   155   158   ar
    72   155   157   ar
    73   156   157   ar
    74   121   122    1
    75   144   142   ar
    76    89    90    2
    77    89    95   am
    78   138   137    1
    79    45    38   am
    80   158   160   ar
    81    38    37    1
    82   157   159   ar
    83   122   123    2
    84   122   124   am
    85    95    96    1
    86   160   161   ar
    87    34    33    1
    88    37    40    1
    89    37    36    1
    90   159   161   ar
    91    40    41    1
    92    98    97    2
    93    96    97    1
    94    96    99    1
    95    36    31   am
    96    32    31    2
    97    33    35    1
    98    33    30    1
    99    31    30    1
   100    97   101   am
   101    43    42    2
   102    99   100    1
   103    21    20    1
   104    41    42    1
   105    30    29    1
   106    42    44   am
   107   101   102    1
   108    20    19   ar
   109    20    18   ar
   110   128   127    2
   111   127   126    1
   112   129   126    1
   113   129   130    1
   114   125   126    1
   115   104   103    2
   116    19    17   ar
   117   102   103    1
   118   102   105    1
   119    29    24   am
   120    18    16   ar
   121   114   113   ar
   122   132   130   ar
   123   132   134   ar
   124   103   108   am
   125     8     7   ar
   126   130   131   ar
   127   134   135   ar
   128    25    24    2
   129    17    15   ar
   130    24    23    1
   131    16    15   ar
   132   108   109    1
   133   107   105    1
   134   113   115   ar
   135   113   112    1
   136   105   106    1
   137     7     9   ar
   138     7     6    1
   139   109   112    1
   140   109   110    1
   141    15    14    1
   142   131   133   ar
   143     5     6    1
   144     5     2    1
   145   135   133   ar
   146    27    26    1
   147    23    26    1
   148    23    22    1
   149    26    28    1
   150   110   111    2
   151     4     3    2
   152     1     2    1
   153    14    11    1
   154     2     3    1
   155    11    10    1
   156    11    12    1
   157    12    13    2
