@<TRIPOS>MOLECULE
tmp/2e5wA01.pdb
 165 155 0 0 0
SMALL
GASTEIGER

@<TRIPOS>ATOM
      1  N        -11.8520   17.5400   41.9830 N.3    32  GLN32      -0.1245
      2  CA       -10.5140   16.9730   41.8830 C.3    32  GLN32       0.1566
      3  C         -9.4140   18.0250   41.7780 C.2    32  GLN32       0.2260
      4  O         -9.6880   19.2220   41.6760 O.2    32  GLN32      -0.2867
      5  CB       -10.4740   16.0590   40.6570 C.3    32  GLN32       0.0367
      6  CG       -10.7590   16.7870   39.3440 C.3    32  GLN32       0.0905
      7  CD       -11.6510   15.9960   38.3900 C.2    32  GLN32       0.2608
      8  OE1      -11.6170   14.7620   38.3580 O.2    32  GLN32      -0.2717
      9  NE2      -12.4420   16.7100   37.5930 N.am   32  GLN32      -0.0878
     10  N         -1.7810   18.1800   31.0020 N.3    46  LEU46      -0.1245
     11  CA        -2.9090   18.4170   31.8870 C.3    46  LEU46       0.1561
     12  C         -3.0000   17.1930   32.7710 C.2    46  LEU46       0.2260
     13  O         -2.9690   16.0620   32.2770 O.2    46  LEU46      -0.2867
     14  CB        -4.2060   18.5670   31.0880 C.3    46  LEU46       0.0270
     15  CG        -5.4990   18.6510   31.9070 C.3    46  LEU46       0.0019
     16  CD1       -5.4460   19.8650   32.8360 C.3    46  LEU46       0.0001
     17  CD2       -6.7000   18.7470   30.9650 C.3    46  LEU46       0.0001
     18  N         -5.0310   15.4140   36.3080 N.3    48  ILE48      -0.1245
     19  CA        -6.1310   15.4340   37.2640 C.3    48  ILE48       0.1561
     20  C         -5.8100   14.3670   38.3010 C.2    48  ILE48       0.2260
     21  O         -5.6330   13.1930   37.9610 O.2    48  ILE48      -0.2867
     22  CB        -7.4810   15.1170   36.5880 C.3    48  ILE48       0.0252
     23  CG1       -7.8930   16.2900   35.6930 C.3    48  ILE48       0.0019
     24  CG2       -8.5490   14.8500   37.6420 C.3    48  ILE48       0.0019
     25  CD1       -9.2140   16.0860   34.9840 C.3    48  ILE48       0.0001
     26  N         -3.8660   13.5030   31.7510 N.3    53  GLN53      -0.1245
     27  CA        -5.0920   13.5300   30.9640 C.3    53  GLN53       0.1566
     28  C         -4.6880   13.6750   29.5110 C.2    53  GLN53       0.2260
     29  O         -5.3160   13.0960   28.6210 O.2    53  GLN53      -0.2867
     30  CB        -5.9870   14.6970   31.3890 C.3    53  GLN53       0.0367
     31  CG        -6.5420   14.5590   32.8010 C.3    53  GLN53       0.0905
     32  CD        -7.3180   13.2630   33.0070 C.2    53  GLN53       0.2608
     33  OE1       -8.3910   13.0580   32.4220 O.2    53  GLN53      -0.2717
     34  NE2       -6.7790   12.3810   33.8410 N.am   53  GLN53      -0.0878
     35  N        -19.4400   12.1810   27.3100 N.3    83  ILE83      -0.1231
     36  CA       -19.4400   12.3150   28.7600 C.3    83  ILE83       0.1692
     37  C        -17.9940   12.6020   29.1520 C.2    83  ILE83       0.2593
     38  O        -17.0860   11.8250   28.8340 O.2    83  ILE83      -0.2718
     39  CB       -19.9290   11.0290   29.4470 C.3    83  ILE83       0.0266
     40  CG1      -21.4130   10.8110   29.1260 C.3    83  ILE83       0.0019
     41  CG2      -19.7010   11.1260   30.9510 C.3    83  ILE83       0.0020
     42  CD1      -22.0070    9.5580   29.7390 C.3    83  ILE83       0.0001
     43  N        -17.7840   13.7250   29.8340 N.am   84  GLY84      -0.1942
     44  CA       -16.4410   14.1140   30.2170 C.3    84  GLY84       0.2014
     45  C        -15.8590   14.9560   29.0910 C.2    84  GLY84       0.2639
     46  O        -16.5240   15.8660   28.5910 O.2    84  GLY84      -0.2714
     47  N        -14.6300   14.6510   28.6830 N.am   85  GLY85      -0.1939
     48  CA       -13.9920   15.3950   27.6100 C.3    85  GLY85       0.2014
     49  C        -13.8720   16.8860   27.8780 C.2    85  GLY85       0.2639
     50  O        -13.9810   17.6980   26.9570 O.2    85  GLY85      -0.2714
     51  N        -13.6230   17.2470   29.1330 N.am   86  GLY86      -0.1939
     52  CA       -13.5070   18.6480   29.5030 C.3    86  GLY86       0.2014
     53  C        -12.4740   19.4550   28.7420 C.2    86  GLY86       0.2638
     54  O        -12.5800   20.6770   28.6560 O.2    86  GLY86      -0.2714
     55  N        -11.4710   18.7820   28.1890 N.am   87  ASP87      -0.1971
     56  CA       -10.4160   19.4550   27.4400 C.3    87  ASP87       0.1709
     57  C        -10.8170   19.7990   26.0030 C.2    87  ASP87       0.2293
     58  O        -10.1070   20.5310   25.3100 O.2    87  ASP87      -0.2864
     59  CB        -9.1670   18.5790   27.4390 C.3    87  ASP87       0.1436
     60  CG        -9.4530   17.1760   26.9540 C.2    87  ASP87       0.3671
     61  OD1       -9.5560   16.9800   25.7260 O.co2  87  ASP87      -0.2456
     62  OD2       -9.5910   16.2730   27.8050 O.co2  87  ASP87      -0.2456
     63  N        -21.4610   16.4380   28.3610 N.3   106  VAL106     -0.1231
     64  CA       -21.7800   16.5160   29.7800 C.3   106  VAL106      0.1692
     65  C        -20.5110   16.3760   30.6150 C.2   106  VAL106      0.2592
     66  O        -19.9490   15.2850   30.7360 O.2   106  VAL106     -0.2718
     67  CB       -22.7720   15.4060   30.1940 C.3   106  VAL106      0.0266
     68  CG1      -23.1450   15.5590   31.6660 C.3   106  VAL106      0.0020
     69  CG2      -24.0120   15.4620   29.3140 C.3   106  VAL106      0.0020
     70  N        -20.0710   17.4960   31.1800 N.am  107  GLU107     -0.1966
     71  CA       -18.8720   17.5600   32.0140 C.3   107  GLU107      0.1733
     72  C        -19.3060   17.8960   33.4390 C.2   107  GLU107      0.2616
     73  O        -20.0480   18.8530   33.6610 O.2   107  GLU107     -0.2715
     74  CB       -17.9260   18.6400   31.4670 C.3   107  GLU107      0.0429
     75  CG       -16.7420   18.9980   32.3590 C.3   107  GLU107      0.1163
     76  CD       -15.8830   17.8010   32.7120 C.2   107  GLU107      0.3649
     77  OE1      -15.1450   17.3130   31.8270 O.co2 107  GLU107     -0.2457
     78  OE2      -15.9540   17.3440   33.8740 O.co2 107  GLU107     -0.2457
     79  N        -18.8430   17.1070   34.4010 N.am  108  ILE108     -0.1963
     80  CA       -19.2150   17.3120   35.7930 C.3   108  ILE108      0.1727
     81  C        -18.4270   18.4240   36.4800 C.2   108  ILE108      0.2616
     82  O        -18.9080   19.0280   37.4350 O.2   108  ILE108     -0.2715
     83  CB       -19.0350   16.0090   36.6070 C.3   108  ILE108      0.0290
     84  CG1      -19.7960   16.1110   37.9300 C.3   108  ILE108      0.0022
     85  CG2      -17.5510   15.7600   36.8790 C.3   108  ILE108      0.0023
     86  CD1      -19.7310   14.8540   38.7750 C.3   108  ILE108      0.0001
     87  N        -17.2240   18.6980   35.9830 N.am  109  ASP109     -0.1971
     88  CA       -16.3590   19.7170   36.5760 C.3   109  ASP109      0.1709
     89  C        -16.1010   20.8690   35.6070 C.2   109  ASP109      0.2293
     90  O        -15.2430   20.7620   34.7290 O.2   109  ASP109     -0.2864
     91  CB       -15.0240   19.0740   36.9650 C.3   109  ASP109      0.1436
     92  CG       -14.2040   19.9400   37.8990 C.2   109  ASP109      0.3671
     93  OD1      -14.3740   21.1780   37.8800 O.co2 109  ASP109     -0.2456
     94  OD2      -13.3740   19.3730   38.6430 O.co2 109  ASP109     -0.2456
     95  N        -12.4540   22.2590   34.8320 N.3   112  VAL112     -0.1245
     96  CA       -11.6180   21.5890   33.8450 C.3   112  VAL112      0.1561
     97  C        -11.7530   22.2950   32.4970 C.2   112  VAL112      0.2260
     98  O        -10.7620   22.5480   31.8100 O.2   112  VAL112     -0.2867
     99  CB       -12.0260   20.0990   33.6980 C.3   112  VAL112      0.0252
    100  CG1      -11.2240   19.4340   32.5780 C.3   112  VAL112      0.0019
    101  CG2      -11.7950   19.3710   35.0220 C.3   112  VAL112      0.0019
    102  N        -22.8650   18.6170   34.5910 N.3   143  GLY143     -0.1210
    103  CA       -23.5190   17.6840   35.4880 C.3   143  GLY143      0.1956
    104  C        -22.9120   16.2980   35.3950 C.2   143  GLY143      0.2612
    105  O        -21.9700   16.0720   34.6350 O.2   143  GLY143     -0.2717
    106  N        -23.4560   15.3690   36.1720 N.am  144  ASP144     -0.1959
    107  CA       -22.9780   13.9930   36.1860 C.3   144  ASP144      0.1840
    108  C        -23.5350   13.2480   34.9730 C.2   144  ASP144      0.2623
    109  O        -24.7310   13.3150   34.6900 O.2   144  ASP144     -0.2715
    110  CB       -23.4350   13.2990   37.4710 C.3   144  ASP144      0.1450
    111  CG       -22.7160   11.9910   37.7120 C.2   144  ASP144      0.3671
    112  OD1      -22.5630   11.2110   36.7500 O.co2 144  ASP144     -0.2456
    113  OD2      -22.3080   11.7410   38.8670 O.co2 144  ASP144     -0.2456
    114  N        -22.6640   12.5370   34.2630 N.am  145  GLY145     -0.1940
    115  CA       -23.0870   11.7980   33.0870 C.3   145  GLY145      0.2014
    116  C        -23.9710   10.6050   33.3990 C.2   145  GLY145      0.2638
    117  O        -24.7540   10.1650   32.5560 O.2   145  GLY145     -0.2714
    118  N        -23.8390   10.0710   34.6070 N.am  146  VAL146     -0.1977
    119  CA       -24.6380    8.9290   35.0210 C.3   146  VAL146      0.1596
    120  C        -26.0920    9.3670   35.1560 C.2   146  VAL146      0.2287
    121  O        -27.0050    8.6890   34.6840 O.2   146  VAL146     -0.2864
    122  CB       -24.1530    8.3670   36.3760 C.3   146  VAL146      0.0276
    123  CG1      -25.0250    7.1930   36.7960 C.3   146  VAL146      0.0022
    124  CG2      -22.6980    7.9310   36.2660 C.3   146  VAL146      0.0022
    125  N        -15.4580    9.8150   27.6920 N.3   161  ASP161     -0.1225
    126  CA       -14.0760   10.2540   27.7870 C.3   161  ASP161      0.1805
    127  C        -13.8780   10.8760   29.1600 C.2   161  ASP161      0.2598
    128  O        -13.6940   12.0840   29.2830 O.2   161  ASP161     -0.2718
    129  CB       -13.7960   11.2770   26.6790 C.3   161  ASP161      0.1424
    130  CG       -12.4210   11.9000   26.7870 C.2   161  ASP161      0.3668
    131  OD1      -11.4870   11.2030   27.2280 O.co2 161  ASP161     -0.2456
    132  OD2      -12.2730   13.0820   26.4120 O.co2 161  ASP161     -0.2456
    133  N        -13.9290   10.0430   30.1920 N.am  162  SER162     -0.1938
    134  CA       -13.7720   10.5190   31.5600 C.3   162  SER162      0.2055
    135  C        -12.4140   10.1490   32.1450 C.2   162  SER162      0.2643
    136  O        -11.5190    9.6680   31.4410 O.2   162  SER162     -0.2714
    137  CB       -14.8710    9.9260   32.4430 C.3   162  SER162      0.2130
    138  OG       -14.7570    8.5090   32.5070 O.3   162  SER162     -0.2179
    139  N        -12.2810   10.3870   33.4450 N.am  163  THR163     -0.1950
    140  CA       -11.0680   10.0680   34.1900 C.3   163  THR163      0.1897
    141  C        -11.1330    8.5760   34.5110 C.2   163  THR163      0.2313
    142  O        -12.0790    7.8980   34.1030 O.2   163  THR163     -0.2863
    143  CB       -11.0210   10.8600   35.5200 C.3   163  THR163      0.1794
    144  OG1      -12.2930   10.7660   36.1700 O.3   163  THR163     -0.2208
    145  CG2      -10.6940   12.3240   35.2710 C.3   163  THR163      0.0378
    146  N        -15.5580   10.6480   40.6670 N.3   168  PRO168     -0.2102
    147  CA       -16.9460   10.7620   40.2110 C.3   168  PRO168      0.1504
    148  C        -17.1820    9.9550   38.9340 C.2   168  PRO168      0.2575
    149  O        -18.3140    9.8260   38.4700 O.2   168  PRO168     -0.2718
    150  CB       -17.1070   12.2630   39.9900 C.3   168  PRO168      0.0282
    151  CG       -15.7400   12.6630   39.5110 C.3   168  PRO168      0.0208
    152  CD       -14.8290   11.9140   40.4640 C.3   168  PRO168      0.0893
    153  N        -16.1030    9.4060   38.3810 N.am  169  ALA169     -0.1980
    154  CA       -16.1760    8.6210   37.1540 C.3   169  ALA169      0.1597
    155  C        -16.4290    7.1340   37.3960 C.2   169  ALA169      0.2287
    156  O        -16.7670    6.3980   36.4690 O.2   169  ALA169     -0.2864
    157  CB       -14.8910    8.8030   36.3530 C.3   169  ALA169      0.0319
    158  N        -19.4300    5.5190   35.9620 N.3   172  LEU172     -0.1245
    159  CA       -19.4450    5.4400   34.5000 C.3   172  LEU172      0.1561
    160  C        -19.0290    4.0470   33.9950 C.2   172  LEU172      0.2260
    161  O        -19.0040    3.7670   32.8020 O.2   172  LEU172     -0.2867
    162  CB       -18.4820    6.4920   33.9490 C.3   172  LEU172      0.0270
    163  CG       -18.9820    7.9240   34.1570 C.3   172  LEU172      0.0019
    164  CD1      -17.9920    8.9660   33.6310 C.3   172  LEU172      0.0001
    165  CD2      -20.3080    8.2010   33.4490 C.3   172  LEU172      0.0001
@<TRIPOS>BOND
     1    58    57    2
     2    61    60   ar
     3    57    56    1
     4   132   130   ar
     5   129   130    1
     6   129   126    1
     7   130   131   ar
     8    60    59    1
     9    60    62   ar
    10    50    49    2
    11    35    36    1
    12    59    56    1
    13    56    55    1
    14    48    49    1
    15    48    47    1
    16   125   126    1
    17   126   127    1
    18    49    51   am
    19    55    53   am
    20    63    64    1
    21    46    45    2
    22    29    28    2
    23    54    53    2
    24    47    45   am
    25    53    52    1
    26    36    37    1
    27    36    39    1
    28    38    37    2
    29    45    44    1
    30    40    39    1
    31    40    42    1
    32    51    52    1
    33    37    43   am
    34   127   128    2
    35   127   133   am
    36    69    67    1
    37    39    41    1
    38    28    27    1
    39    64    67    1
    40    64    65    1
    41    43    44    1
    42   133   134    1
    43    67    68    1
    44    65    66    2
    45    65    70   am
    46    27    30    1
    47    27    26    1
    48    17    15    1
    49    10    11    1
    50    14    11    1
    51    14    15    1
    52    70    71    1
    53    30    31    1
    54   136   135    2
    55    74    71    1
    56    74    75    1
    57   134   135    1
    58   134   137    1
    59    98    97    2
    60    77    76   ar
    61    11    12    1
    62    15    16    1
    63    71    72    1
    64   135   139   am
    65    13    12    2
    66    75    76    1
    67    33    32    2
    68   137   138    1
    69    97    96    1
    70   117   116    2
    71   100    99    1
    72    76    78   ar
    73    31    32    1
    74   161   160    2
    75    32    34   am
    76   115   116    1
    77   115   114    1
    78   116   118   am
    79    72    73    2
    80    72    79   am
    81   139   140    1
    82   165   163    1
    83   164   163    1
    84    99    96    1
    85    99   101    1
    86    96    95    1
    87   162   163    1
    88   162   159    1
    89   160   159    1
    90   142   141    2
    91   140   141    1
    92   140   143    1
    93   114   108   am
    94    79    80    1
    95   159   158    1
    96   102   103    1
    97   118   119    1
    98   105   104    2
    99   121   120    2
   100   109   108    2
   101    90    89    2
   102   108   107    1
   103    25    23    1
   104   119   120    1
   105   119   122    1
   106   145   143    1
   107   104   103    1
   108   104   106   am
   109   143   144    1
   110    89    88    1
   111    23    22    1
   112    80    81    1
   113    80    83    1
   114    87    81   am
   115    87    88    1
   116   106   107    1
   117   107   110    1
   118   124   122    1
   119    18    19    1
   120   157   154    1
   121   122   123    1
   122   156   155    2
   123    81    82    2
   124    88    91    1
   125    22    19    1
   126    22    24    1
   127    83    85    1
   128    83    84    1
   129   112   111   ar
   130    91    92    1
   131   154   155    1
   132   154   153    1
   133    19    20    1
   134   110   111    1
   135     9     7   am
   136   111   113   ar
   137    93    92   ar
   138    92    94   ar
   139    84    86    1
   140    21    20    2
   141     8     7    2
   142   153   148   am
   143     7     6    1
   144   149   148    2
   145   148   147    1
   146     6     5    1
   147   151   150    1
   148   151   152    1
   149   150   147    1
   150   147   146    1
   151   152   146    1
   152     5     2    1
   153     4     3    2
   154     3     2    1
   155     2     1    1
