@<TRIPOS>MOLECULE
tmp/2e5yB00.pdb
 130 120 0 0 0
SMALL
GASTEIGER

@<TRIPOS>ATOM
      1  N         41.9220   31.9670   12.3400 N.3    12  ASP12      -0.1239
      2  CA        43.2930   32.4310   12.3230 C.3    12  ASP12       0.1674
      3  C         43.4870   33.7500   13.0570 C.2    12  ASP12       0.2266
      4  O         44.6010   34.1940   13.2100 O.2    12  ASP12      -0.2867
      5  CB        43.7830   32.5880   10.8910 C.3    12  ASP12       0.1410
      6  CG        43.6510   31.3230   10.0930 C.2    12  ASP12       0.3668
      7  OD1       44.1540   30.2800   10.5460 O.co2  12  ASP12      -0.2456
      8  OD2       43.0300   31.3720    9.0150 O.co2  12  ASP12      -0.2456
      9  N         31.9440   33.1370    5.2160 N.3    64  SER64      -0.1217
     10  CA        31.4550   31.7760    4.9280 C.3    64  SER64       0.1889
     11  C         30.7080   31.3410    6.1530 C.2    64  SER64       0.2288
     12  O         31.0590   30.3630    6.8050 O.2    64  SER64      -0.2866
     13  CB        32.5950   30.7830    4.6490 C.3    64  SER64       0.2089
     14  OG        33.2020   31.0110    3.3540 O.3    64  SER64      -0.2183
     15  N         33.6770   31.4780   10.0440 N.3    80  GLN80      -0.1231
     16  CA        34.4670   30.2890    9.7830 C.3    80  GLN80       0.1698
     17  C         35.5830   30.5610    8.7530 C.2    80  GLN80       0.2592
     18  O         36.7180   30.0800    8.8920 O.2    80  GLN80      -0.2718
     19  CB        33.5440   29.1280    9.3890 C.3    80  GLN80       0.0381
     20  CG        32.6310   28.6930   10.5430 C.3    80  GLN80       0.0905
     21  CD        33.4410   28.1220   11.6860 C.2    80  GLN80       0.2608
     22  OE1       33.6110   28.7660   12.7230 O.2    80  GLN80      -0.2717
     23  NE2       33.9980   26.9340   11.4790 N.am   80  GLN80      -0.0878
     24  N         35.2790   31.3890    7.7550 N.am   81  ALA81      -0.1966
     25  CA        36.2900   31.8760    6.8260 C.3    81  ALA81       0.1728
     26  C         35.8420   33.2440    6.3630 C.2    81  ALA81       0.2616
     27  O         34.6480   33.4820    6.2410 O.2    81  ALA81      -0.2715
     28  CB        36.4190   30.9270    5.6230 C.3    81  ALA81       0.0334
     29  N         36.7710   34.1570    6.1450 N.am   82  ALA82      -0.1963
     30  CA        36.4130   35.4930    5.6480 C.3    82  ALA82       0.1728
     31  C         37.5370   36.0360    4.8130 C.2    82  ALA82       0.2616
     32  O         38.7130   35.9650    5.2160 O.2    82  ALA82      -0.2715
     33  CB        36.0810   36.5000    6.8250 C.3    82  ALA82       0.0334
     34  N         37.1670   36.6280    3.6670 N.am   83  GLU83      -0.1977
     35  CA        38.1390   37.2790    2.7960 C.3    83  GLU83       0.1602
     36  C         37.6370   38.6480    2.3490 C.2    83  GLU83       0.2287
     37  O         36.4990   38.7840    1.8540 O.2    83  GLU83      -0.2864
     38  CB        38.4210   36.4140    1.5560 C.3    83  GLU83       0.0415
     39  CG        38.7770   34.9640    1.8530 C.3    83  GLU83       0.1163
     40  CD        37.5870   34.0700    2.0630 C.2    83  GLU83       0.3649
     41  OE1       36.5250   34.3210    1.4480 O.co2  83  GLU83      -0.2457
     42  OE2       37.6840   33.0850    2.8480 O.co2  83  GLU83      -0.2457
     43  N         41.4290   40.3930   -1.6440 N.3    87  ASP87      -0.1225
     44  CA        42.2980   39.2550   -1.3330 C.3    87  ASP87       0.1805
     45  C         41.7170   37.9370   -1.8450 C.2    87  ASP87       0.2598
     46  O         42.3040   36.8650   -1.6720 O.2    87  ASP87      -0.2718
     47  CB        42.5410   39.1580    0.1660 C.3    87  ASP87       0.1424
     48  CG        43.3260   40.3680    0.7200 C.2    87  ASP87       0.3668
     49  OD1       44.2670   40.8590    0.0580 O.co2  87  ASP87      -0.2456
     50  OD2       43.0030   40.8130    1.8250 O.co2  87  ASP87      -0.2456
     51  N         40.5460   37.9870   -2.4520 N.am   88  ILE88      -0.1966
     52  CA        39.9940   36.7560   -3.0400 C.3    88  ILE88       0.1727
     53  C         40.7650   36.3850   -4.2990 C.2    88  ILE88       0.2616
     54  O         40.9140   37.1950   -5.1960 O.2    88  ILE88      -0.2715
     55  CB        38.4660   36.8640   -3.2770 C.3    88  ILE88       0.0290
     56  CG1       37.7450   37.0220   -1.9300 C.3    88  ILE88       0.0022
     57  CG2       37.8720   35.6450   -4.0410 C.3    88  ILE88       0.0023
     58  CD1       36.3550   37.5600   -2.0650 C.3    88  ILE88       0.0001
     59  N         41.2220   35.1280   -4.3470 N.am   89  ASP89      -0.1971
     60  CA        41.8490   34.5060   -5.5090 C.3    89  ASP89       0.1709
     61  C         40.7100   33.9850   -6.4170 C.2    89  ASP89       0.2293
     62  O         40.0280   33.0020   -6.0970 O.2    89  ASP89      -0.2864
     63  CB        42.7100   33.3690   -4.9560 C.3    89  ASP89       0.1436
     64  CG        43.4450   32.5730   -6.0200 C.2    89  ASP89       0.3671
     65  OD1       44.3800   31.8400   -5.6090 O.co2  89  ASP89      -0.2456
     66  OD2       43.0740   32.6310   -7.2260 O.co2  89  ASP89      -0.2456
     67  N         41.0650   30.3920   -8.0840 N.3    92  ARG92      -0.1231
     68  CA        40.8140   29.3490   -7.1010 C.3    92  ARG92       0.1694
     69  C         39.3060   29.1760   -6.7980 C.2    92  ARG92       0.2591
     70  O         38.8290   28.0550   -6.6870 O.2    92  ARG92      -0.2718
     71  CB        41.5880   29.6590   -5.8330 C.3    92  ARG92       0.0321
     72  CG        41.1910   28.7340   -4.6580 C.3    92  ARG92       0.0489
     73  CD        42.0090   29.1150   -3.4530 C.3    92  ARG92       0.2205
     74  NE        41.6420   28.2600   -2.3400 N.pl3  92  ARG92      -0.0865
     75  CZ        42.1310   28.3910   -1.1140 C.cat  92  ARG92       0.5346
     76  NH1       42.9990   29.3430   -0.8730 N.pl3  92  ARG92       0.1354
     77  NH2       41.7590   27.5480   -0.1560 N.pl3  92  ARG92       0.1354
     78  N         38.5850   30.2780   -6.6130 N.am   93  ALA93      -0.1980
     79  CA        37.1370   30.2330   -6.3540 C.3    93  ALA93       0.1597
     80  C         36.3560   29.6720   -7.5600 C.2    93  ALA93       0.2287
     81  O         35.4110   28.9030   -7.3730 O.2    93  ALA93      -0.2864
     82  CB        36.5910   31.5970   -5.9260 C.3    93  ALA93       0.0319
     83  N         36.9390   26.0050   -7.4860 N.3    96  ALA96      -0.1245
     84  CA        36.1190   25.4590   -6.4030 C.3    96  ALA96       0.1562
     85  C         34.6600   25.3010   -6.8050 C.2    96  ALA96       0.2260
     86  O         34.0260   24.3120   -6.4680 O.2    96  ALA96      -0.2867
     87  CB        36.2360   26.3510   -5.1460 C.3    96  ALA96       0.0290
     88  N         34.3410   22.3710   -9.2490 N.3    99  ARG99      -0.1245
     89  CA        34.5440   21.1240   -8.5540 C.3    99  ARG99       0.1563
     90  C         33.2820   20.7010   -7.8330 C.2    99  ARG99       0.2260
     91  O         32.9010   19.5190   -7.8760 O.2    99  ARG99      -0.2867
     92  CB        35.6970   21.2820   -7.5820 C.3    99  ARG99       0.0307
     93  CG        36.0580   20.0490   -6.8100 C.3    99  ARG99       0.0489
     94  CD        37.2130   20.3920   -5.9090 C.3    99  ARG99       0.2205
     95  NE        38.0700   21.4490   -6.4690 N.pl3  99  ARG99      -0.0865
     96  CZ        38.3950   22.5670   -5.8240 C.cat  99  ARG99       0.5346
     97  NH1       37.9150   22.8000   -4.6000 N.pl3  99  ARG99       0.1354
     98  NH2       39.2010   23.4400   -6.4030 N.pl3  99  ARG99       0.1354
     99  N         29.7720   23.9800   -0.4500 N.3   119  ALA119     -0.1245
    100  CA        31.0330   24.3090   -1.1130 C.3   119  ALA119      0.1562
    101  C         30.7430   25.2510   -2.2940 C.2   119  ALA119      0.2260
    102  O         31.4610   26.2580   -2.5080 O.2   119  ALA119     -0.2867
    103  CB        31.7670   23.0270   -1.5680 C.3   119  ALA119      0.0290
    104  N         29.8820   28.8050   -1.0790 N.3   122  ARG122     -0.1231
    105  CA        31.0660   29.5710   -0.6320 C.3   122  ARG122      0.1694
    106  C         31.8420   30.1050   -1.8180 C.2   122  ARG122      0.2591
    107  O         32.3310   31.2290   -1.8050 O.2   122  ARG122     -0.2718
    108  CB        32.0140   28.6810    0.1990 C.3   122  ARG122      0.0321
    109  CG        31.5030   28.3730    1.6360 C.3   122  ARG122      0.0489
    110  CD        32.6530   27.7370    2.5080 C.3   122  ARG122      0.2205
    111  NE        33.2540   26.5430    1.8930 N.pl3 122  ARG122     -0.0865
    112  CZ        32.7390   25.3350    2.0050 C.cat 122  ARG122      0.5346
    113  NH1       31.5630   25.1710    2.6180 N.pl3 122  ARG122      0.1354
    114  NH2       33.3380   24.3110    1.4280 N.pl3 122  ARG122      0.1354
    115  N         31.9610   29.2860   -2.8520 N.am  123  ALA123     -0.1980
    116  CA        32.6500   29.7220   -4.0870 C.3   123  ALA123      0.1597
    117  C         31.8900   30.8280   -4.8280 C.2   123  ALA123      0.2287
    118  O         32.4680   31.8490   -5.1980 O.2   123  ALA123     -0.2864
    119  CB        32.8820   28.4990   -4.9980 C.3   123  ALA123      0.0319
    120  N         32.2520   34.0500   -2.9060 N.3   126  ARG126     -0.1245
    121  CA        33.5740   34.6720   -3.0850 C.3   126  ARG126      0.1563
    122  C         33.6870   35.3520   -4.4480 C.2   126  ARG126      0.2260
    123  O         34.2390   36.4730   -4.5860 O.2   126  ARG126     -0.2867
    124  CB        34.6860   33.6410   -2.9170 C.3   126  ARG126      0.0307
    125  CG        34.9390   33.3460   -1.4270 C.3   126  ARG126      0.0489
    126  CD        35.5870   31.9740   -1.2700 C.3   126  ARG126      0.2205
    127  NE        35.9810   31.7880    0.1320 N.pl3 126  ARG126     -0.0865
    128  CZ        35.9150   30.6460    0.8110 C.cat 126  ARG126      0.5346
    129  NH1       35.5740   29.4850    0.2120 N.pl3 126  ARG126      0.1354
    130  NH2       36.2540   30.6590    2.1010 N.pl3 126  ARG126      0.1354
@<TRIPOS>BOND
     1    88    89    1
     2    89    90    1
     3    89    92    1
     4    67    68    1
     5    91    90    2
     6    92    93    1
     7    80    81    2
     8    80    79    1
     9    83    84    1
    10    66    64   ar
    11    68    69    1
    12    68    71    1
    13    93    94    1
    14    85    86    2
    15    85    84    1
    16    69    70    2
    17    69    78   am
    18    78    79    1
    19    95    94    1
    20    95    96    2
    21    61    62    2
    22    61    60    1
    23    98    96    1
    24    84    87    1
    25    79    82    1
    26    64    65   ar
    27    64    63    1
    28    71    72    1
    29    96    97    1
    30    60    63    1
    31    60    59    1
    32   118   117    2
    33    54    53    2
    34   119   116    1
    35   117   116    1
    36    72    73    1
    37   123   122    2
    38   122   121    1
    39    59    53   am
    40    53    52    1
    41   116   115    1
    42    57    55    1
    43    73    74    1
    44    55    52    1
    45    55    56    1
    46   121   124    1
    47   121   120    1
    48    52    51    1
    49   124   125    1
    50   115   106   am
    51   102   101    2
    52    51    45   am
    53    74    75    2
    54   101   100    1
    55    58    56    1
    56    45    46    2
    57    45    44    1
    58   106   107    2
    59   106   105    1
    60    43    44    1
    61   103   100    1
    62   125   126    1
    63    44    47    1
    64   126   127    1
    65    75    76    1
    66    75    77    1
    67   100    99    1
    68   104   105    1
    69   105   108    1
    70    49    48   ar
    71   127   128    2
    72    47    48    1
    73   108   109    1
    74   129   128    1
    75    48    50   ar
    76   128   130    1
    77   114   112    1
    78    41    40   ar
    79    38    39    1
    80    38    35    1
    81   109   110    1
    82    39    40    1
    83    37    36    2
    84   111   112    2
    85   111   110    1
    86   112   113    1
    87    40    42   ar
    88    36    35    1
    89    35    34    1
    90    14    13    1
    91    34    31   am
    92    13    10    1
    93    31    32    2
    94    31    30    1
    95    10     9    1
    96    10    11    1
    97    28    25    1
    98    30    29    1
    99    30    33    1
   100    29    26   am
   101    11    12    2
   102    27    26    2
   103    26    25    1
   104    25    24    1
   105    24    17   am
   106    17    18    2
   107    17    16    1
   108     8     6   ar
   109    19    16    1
   110    19    20    1
   111    16    15    1
   112     6     7   ar
   113     6     5    1
   114    20    21    1
   115     5     2    1
   116    23    21   am
   117    21    22    2
   118     2     1    1
   119     2     3    1
   120     3     4    2
