@<TRIPOS>MOLECULE
tmp/2e6aA01.pdb
 86 81 0 0 0
SMALL
GASTEIGER

@<TRIPOS>ATOM
      1  N         15.6820   53.9170   76.3990 N.3    44  LYS44      -0.1231
      2  CA        14.2720   53.9240   75.9800 C.3    44  LYS44       0.1693
      3  C         14.1600   53.7940   74.4620 C.2    44  LYS44       0.2592
      4  O         14.8810   54.4840   73.7330 O.2    44  LYS44      -0.2718
      5  CB        13.6360   55.2610   76.4170 C.3    44  LYS44       0.0285
      6  CG        12.2400   55.5450   75.8330 C.3    44  LYS44       0.0035
      7  CD        11.1940   54.5750   76.3940 C.3    44  LYS44       0.0206
      8  CE         9.8780   54.6490   75.6050 C.3    44  LYS44       0.1093
      9  NZ         8.9260   53.5880   76.1310 N.3    44  LYS44      -0.1314
     10  N         13.2360   52.9600   73.9740 N.am   45  SER45      -0.1952
     11  CA        13.0350   52.8790   72.5140 C.3    45  SER45       0.1924
     12  C         12.7010   54.2600   71.9840 C.2    45  SER45       0.2314
     13  O         11.7640   54.9210   72.4680 O.2    45  SER45      -0.2863
     14  CB        11.9100   51.9170   72.1370 C.3    45  SER45       0.2116
     15  OG        12.3170   50.6060   72.3760 O.3    45  SER45      -0.2180
     16  N          0.7600   48.7520   80.6720 N.3    68  ASN68      -0.1240
     17  CA         1.2550   50.0510   80.2120 C.3    68  ASN68       0.1653
     18  C          0.8340   50.3410   78.8000 C.2    68  ASN68       0.2266
     19  O          0.7670   49.4350   77.9750 O.2    68  ASN68      -0.2867
     20  CB         2.7930   50.1700   80.3430 C.3    68  ASN68       0.1155
     21  CG         3.5530   49.6760   79.1030 C.2    68  ASN68       0.2627
     22  OD1        3.7240   50.4030   78.1100 O.2    68  ASN68      -0.2716
     23  ND2        4.0240   48.4420   79.1610 N.am   68  ASN68      -0.0877
     24  N          2.4500   53.3540   77.2490 N.3    70  MET70      -0.1230
     25  CA         3.2180   54.6040   77.2950 C.3    70  MET70       0.1702
     26  C          3.1330   55.3800   75.9800 C.2    70  MET70       0.2593
     27  O          2.9620   56.5980   76.0020 O.2    70  MET70      -0.2718
     28  CB         4.6780   54.3420   77.6650 C.3    70  MET70       0.0401
     29  CG         4.8940   53.4430   78.8760 C.3    70  MET70       0.0596
     30  SD         4.2000   54.1310   80.3870 S.3    70  MET70      -0.1393
     31  CE         5.2380   55.5680   80.6120 C.3    70  MET70       0.0692
     32  N          3.2500   54.6690   74.8540 N.am   71  GLY71      -0.1942
     33  CA         3.1390   55.2680   73.5080 C.3    71  GLY71       0.2014
     34  C          4.4520   55.8640   73.0340 C.2    71  GLY71       0.2638
     35  O          4.4720   56.8840   72.3290 O.2    71  GLY71      -0.2714
     36  N          5.5470   55.2270   73.4380 N.am   72  LEU72      -0.1977
     37  CA         6.9170   55.6500   73.0640 C.3    72  LEU72       0.1596
     38  C          7.2310   57.1100   73.4050 C.2    72  LEU72       0.2287
     39  O          7.7620   57.8460   72.5620 O.2    72  LEU72      -0.2864
     40  CB         7.2020   55.3530   71.5830 C.3    72  LEU72       0.0297
     41  CG         7.2270   53.8820   71.1850 C.3    72  LEU72       0.0022
     42  CD1        7.2960   53.7520   69.6600 C.3    72  LEU72       0.0001
     43  CD2        8.4060   53.1660   71.8310 C.3    72  LEU72       0.0001
     44  N         13.4970   47.4320   67.9430 N.3   128  ASN128     -0.1240
     45  CA        12.2220   47.0630   68.5560 C.3   128  ASN128      0.1653
     46  C         11.1450   46.7900   67.5040 C.2   128  ASN128      0.2266
     47  O         10.6450   47.7130   66.8710 O.2   128  ASN128     -0.2867
     48  CB        11.7940   48.1840   69.5170 C.3   128  ASN128      0.1155
     49  CG        10.5440   47.8550   70.2940 C.2   128  ASN128      0.2627
     50  OD1        9.9200   46.8150   70.0810 O.2   128  ASN128     -0.2716
     51  ND2       10.1640   48.7510   71.2090 N.am  128  ASN128     -0.0877
     52  N          6.5360   46.9180   69.7190 N.3   131  CYS131     -0.1221
     53  CA         5.7420   47.8840   70.4910 C.3   131  CYS131      0.1794
     54  C          4.2410   47.6380   70.2540 C.2   131  CYS131      0.2443
     55  O          3.7920   47.6850   69.0980 O.2   131  CYS131     -0.2733
     56  CB         6.1190   49.3100   70.1120 C.3   131  CYS131      0.0970
     57  SG         5.0400   50.5420   70.9170 S.3   131  CYS131     -0.0800
     58  N          3.4730   47.3530   71.3310 N.am  132  PRO132     -0.2718
     59  CA         2.0360   47.0970   71.1670 C.3   132  PRO132      0.1535
     60  C          1.1200   48.2880   71.4920 C.2   132  PRO132      0.2598
     61  O         -0.0950   48.0940   71.6270 O.2   132  PRO132     -0.2715
     62  CB         1.7920   45.9990   72.1980 C.3   132  PRO132      0.0310
     63  CG         2.7300   46.4060   73.3860 C.3   132  PRO132      0.0237
     64  CD         3.8970   47.1690   72.7420 C.3   132  PRO132      0.0939
     65  N          1.6890   49.4840   71.6520 N.am  133  ASN133     -0.1973
     66  CA         0.9620   50.6050   72.2630 C.3   133  ASN133      0.1688
     67  C          0.7330   51.8770   71.4450 C.2   133  ASN133      0.2292
     68  O          0.1200   52.8250   71.9480 O.2   133  ASN133     -0.2864
     69  CB         1.6250   51.0080   73.5780 C.3   133  ASN133      0.1181
     70  CG         1.5640   49.9190   74.6130 C.2   133  ASN133      0.2629
     71  OD1        0.5720   49.1720   74.7140 O.2   133  ASN133     -0.2716
     72  ND2        2.6100   49.8400   75.4270 N.am  133  ASN133     -0.0877
     73  N          8.9440   41.2780   74.6230 N.3   195  ASN195     -0.1225
     74  CA         8.2160   42.5130   74.9220 C.3   195  ASN195      0.1785
     75  C          6.9400   42.1850   75.7170 C.2   195  ASN195      0.2597
     76  O          6.6300   41.0130   75.9690 O.2   195  ASN195     -0.2718
     77  CB         7.8730   43.2320   73.6090 C.3   195  ASN195      0.1169
     78  CG         7.8520   44.7400   73.7560 C.2   195  ASN195      0.2627
     79  OD1        7.2540   45.2860   74.6940 O.2   195  ASN195     -0.2716
     80  ND2        8.5080   45.4240   72.8260 N.am  195  ASN195     -0.0877
     81  N          6.2080   43.2170   76.1160 N.am  196  SER196     -0.1952
     82  CA         5.0020   43.0170   76.9090 C.3   196  SER196      0.1924
     83  C          3.9740   42.2190   76.1260 C.2   196  SER196      0.2314
     84  O          3.9510   42.2190   74.8740 O.2   196  SER196     -0.2863
     85  CB         4.4290   44.3690   77.3540 C.3   196  SER196      0.2116
     86  OG         4.1120   45.1460   76.2170 O.3   196  SER196     -0.2180
@<TRIPOS>BOND
     1    47    46    2
     2    46    45    1
     3    44    45    1
     4    45    48    1
     5    55    54    2
     6    48    49    1
     7    42    41    1
     8    52    53    1
     9    50    49    2
    10    56    53    1
    11    56    57    1
    12    54    53    1
    13    54    58   am
    14    49    51   am
    15    59    58    1
    16    59    60    1
    17    59    62    1
    18    41    40    1
    19    41    43    1
    20    58    64    1
    21    67    68    2
    22    67    66    1
    23    60    61    2
    24    60    65   am
    25    40    37    1
    26    65    66    1
    27    12    13    2
    28    12    11    1
    29    14    15    1
    30    14    11    1
    31    62    63    1
    32    66    69    1
    33    35    34    2
    34    11    10    1
    35    39    38    2
    36    64    63    1
    37    80    78   am
    38    34    36   am
    39    34    33    1
    40    37    38    1
    41    37    36    1
    42    33    32    1
    43    69    70    1
    44    77    78    1
    45    77    74    1
    46     4     3    2
    47    78    79    2
    48    10     3   am
    49     3     2    1
    50    70    71    2
    51    70    72   am
    52    73    74    1
    53    32    26   am
    54    84    83    2
    55    74    75    1
    56     8     9    1
    57     8     7    1
    58    75    76    2
    59    75    81   am
    60     6     7    1
    61     6     5    1
    62    26    27    2
    63    26    25    1
    64     2     1    1
    65     2     5    1
    66    81    82    1
    67    83    82    1
    68    86    85    1
    69    82    85    1
    70    24    25    1
    71    25    28    1
    72    28    29    1
    73    19    18    2
    74    22    21    2
    75    18    17    1
    76    29    30    1
    77    21    23   am
    78    21    20    1
    79    17    20    1
    80    17    16    1
    81    30    31    1
