@<TRIPOS>MOLECULE
tmp/2e6fA01.pdb
 91 85 0 0 0
SMALL
GASTEIGER

@<TRIPOS>ATOM
      1  N         14.1680   47.5550   78.1320 N.3    20  ALA20      -0.1245
      2  CA        13.9840   48.8380   77.4540 C.3    20  ALA20       0.1562
      3  C         12.6890   49.5010   77.9110 C.2    20  ALA20       0.2260
      4  O         11.6620   48.8330   78.0810 O.2    20  ALA20      -0.2867
      5  CB        14.0020   48.6760   75.9410 C.3    20  ALA20       0.0290
      6  N         15.7220   53.9170   76.4000 N.3    44  LYS44      -0.1231
      7  CA        14.3200   53.9300   75.9830 C.3    44  LYS44       0.1693
      8  C         14.2010   53.8210   74.4680 C.2    44  LYS44       0.2592
      9  O         14.9220   54.5070   73.7440 O.2    44  LYS44      -0.2718
     10  CB        13.6740   55.2400   76.4480 C.3    44  LYS44       0.0285
     11  CG        12.2890   55.5260   75.8690 C.3    44  LYS44       0.0035
     12  CD        11.2590   54.5400   76.4120 C.3    44  LYS44       0.0206
     13  CE         9.9240   54.6130   75.6830 C.3    44  LYS44       0.1093
     14  NZ         9.0020   53.5560   76.1980 N.3    44  LYS44      -0.1314
     15  N         13.2910   52.9810   73.9780 N.am   45  SER45      -0.1952
     16  CA        13.0630   52.9070   72.5350 C.3    45  SER45       0.1924
     17  C         12.7470   54.2920   72.0040 C.2    45  SER45       0.2314
     18  O         11.8370   54.9690   72.5000 O.2    45  SER45      -0.2863
     19  CB        11.9100   51.9720   72.1990 C.3    45  SER45       0.2116
     20  OG        12.2760   50.6150   72.3420 O.3    45  SER45      -0.2180
     21  N          0.6240   48.7660   80.7450 N.3    68  ASN68      -0.1240
     22  CA         1.1000   50.0610   80.2740 C.3    68  ASN68       0.1653
     23  C          0.6600   50.3280   78.8470 C.2    68  ASN68       0.2266
     24  O          0.5510   49.4080   78.0320 O.2    68  ASN68      -0.2867
     25  CB         2.6330   50.1820   80.4110 C.3    68  ASN68       0.1155
     26  CG         3.3780   49.8050   79.1380 C.2    68  ASN68       0.2627
     27  OD1        3.4150   50.5790   78.1710 O.2    68  ASN68      -0.2716
     28  ND2        3.9790   48.6240   79.1320 N.am   68  ASN68      -0.0877
     29  N          2.3930   53.2670   77.2140 N.3    70  MET70      -0.1230
     30  CA         3.2120   54.4780   77.2640 C.3    70  MET70       0.1702
     31  C          3.1150   55.2780   75.9670 C.2    70  MET70       0.2593
     32  O          2.9650   56.4990   75.9980 O.2    70  MET70      -0.2718
     33  CB         4.6780   54.1660   77.5740 C.3    70  MET70       0.0401
     34  CG         4.9330   53.4000   78.8660 C.3    70  MET70       0.0596
     35  SD         4.2370   54.1300   80.3600 S.3    70  MET70      -0.1393
     36  CE         5.3240   55.5340   80.6020 C.3    70  MET70       0.0692
     37  N          3.2100   54.5830   74.8370 N.am   71  GLY71      -0.1942
     38  CA         3.1480   55.2020   73.5150 C.3    71  GLY71       0.2014
     39  C          4.4680   55.7820   73.0450 C.2    71  GLY71       0.2638
     40  O          4.4900   56.7870   72.3310 O.2    71  GLY71      -0.2714
     41  N          5.5690   55.1290   73.4250 N.am   72  LEU72      -0.1977
     42  CA         6.9320   55.5610   73.0640 C.3    72  LEU72       0.1596
     43  C          7.2620   57.0200   73.4170 C.2    72  LEU72       0.2287
     44  O          7.8250   57.7390   72.5920 O.2    72  LEU72      -0.2864
     45  CB         7.2440   55.2700   71.5860 C.3    72  LEU72       0.0297
     46  CG         7.2540   53.7980   71.1720 C.3    72  LEU72       0.0022
     47  CD1        7.3590   53.6870   69.6590 C.3    72  LEU72       0.0001
     48  CD2        8.3900   53.0370   71.8470 C.3    72  LEU72       0.0001
     49  N         13.4880   47.3770   68.0040 N.3   128  ASN128     -0.1240
     50  CA        12.2100   47.0240   68.6040 C.3   128  ASN128      0.1653
     51  C         11.1450   46.7510   67.5390 C.2   128  ASN128      0.2266
     52  O         10.6460   47.6740   66.8970 O.2   128  ASN128     -0.2867
     53  CB        11.7650   48.1390   69.5560 C.3   128  ASN128      0.1155
     54  CG        10.4800   47.8170   70.2950 C.2   128  ASN128      0.2627
     55  OD1        9.8330   46.7900   70.0550 O.2   128  ASN128     -0.2716
     56  ND2       10.0970   48.7020   71.1990 N.am  128  ASN128     -0.0877
     57  N          6.5830   46.9040   69.7540 N.3   131  CYS131     -0.1221
     58  CA         5.7860   47.8790   70.4990 C.3   131  CYS131      0.1794
     59  C          4.2880   47.6320   70.2730 C.2   131  CYS131      0.2443
     60  O          3.8360   47.6500   69.1240 O.2   131  CYS131     -0.2733
     61  CB         6.1410   49.3100   70.0940 C.3   131  CYS131      0.0970
     62  SG         5.1860   50.5580   71.0150 S.3   131  CYS131     -0.0800
     63  N          3.5200   47.3900   71.3550 N.am  132  PRO132     -0.2718
     64  CA         2.0980   47.1130   71.2170 C.3   132  PRO132      0.1535
     65  C          1.1670   48.2760   71.5850 C.2   132  PRO132      0.2598
     66  O         -0.0350   48.0560   71.7420 O.2   132  PRO132     -0.2715
     67  CB         1.9120   45.9870   72.2260 C.3   132  PRO132      0.0310
     68  CG         2.7970   46.4270   73.3900 C.3   132  PRO132      0.0237
     69  CD         3.9520   47.2200   72.7600 C.3   132  PRO132      0.0939
     70  N          1.7100   49.4910   71.7020 N.am  133  ASN133     -0.1973
     71  CA         0.9830   50.6060   72.3290 C.3   133  ASN133      0.1688
     72  C          0.7550   51.8720   71.5010 C.2   133  ASN133      0.2292
     73  O          0.0820   52.7850   71.9780 O.2   133  ASN133     -0.2864
     74  CB         1.6620   51.0110   73.6480 C.3   133  ASN133      0.1181
     75  CG         1.6780   49.9020   74.6730 C.2   133  ASN133      0.2629
     76  OD1        0.7210   49.1360   74.7960 O.2   133  ASN133     -0.2716
     77  ND2        2.7650   49.8220   75.4390 N.am  133  ASN133     -0.0877
     78  N          8.9580   41.2880   74.6050 N.3   195  ASN195     -0.1225
     79  CA         8.2530   42.5270   74.8980 C.3   195  ASN195      0.1785
     80  C          6.9690   42.2180   75.6920 C.2   195  ASN195      0.2597
     81  O          6.6260   41.0440   75.9150 O.2   195  ASN195     -0.2718
     82  CB         7.9480   43.2520   73.5820 C.3   195  ASN195      0.1169
     83  CG         7.8940   44.7720   73.7310 C.2   195  ASN195      0.2627
     84  OD1        7.2850   45.2990   74.6620 O.2   195  ASN195     -0.2716
     85  ND2        8.5280   45.4810   72.8040 N.am  195  ASN195     -0.0877
     86  N          6.2630   43.2620   76.1280 N.am  196  SER196     -0.1952
     87  CA         5.0480   43.0690   76.9110 C.3   196  SER196      0.1924
     88  C          3.9990   42.2810   76.1280 C.2   196  SER196      0.2314
     89  O          3.9780   42.2810   74.8880 O.2   196  SER196     -0.2863
     90  CB         4.4820   44.4110   77.3850 C.3   196  SER196      0.2116
     91  OG         4.1510   45.2410   76.2830 O.3   196  SER196     -0.2180
@<TRIPOS>BOND
     1    52    51    2
     2    51    50    1
     3    49    50    1
     4    50    53    1
     5    60    59    2
     6    53    54    1
     7    47    46    1
     8    57    58    1
     9    55    54    2
    10    61    58    1
    11    61    62    1
    12    59    58    1
    13    59    63   am
    14    54    56   am
    15    46    45    1
    16    46    48    1
    17    64    63    1
    18    64    65    1
    19    64    67    1
    20    63    69    1
    21    72    73    2
    22    72    71    1
    23    65    70   am
    24    65    66    2
    25    45    42    1
    26    70    71    1
    27    17    18    2
    28    17    16    1
    29    19    20    1
    30    19    16    1
    31    67    68    1
    32    71    74    1
    33    40    39    2
    34    16    15    1
    35    44    43    2
    36    69    68    1
    37    85    83   am
    38    39    41   am
    39    39    38    1
    40    42    43    1
    41    42    41    1
    42    38    37    1
    43    82    83    1
    44    82    79    1
    45    74    75    1
    46    83    84    2
    47     9     8    2
    48    15     8   am
    49     8     7    1
    50    78    79    1
    51    75    76    2
    52    75    77   am
    53    37    31   am
    54    89    88    2
    55    79    80    1
    56    13    14    1
    57    13    12    1
    58    80    81    2
    59    80    86   am
    60    11    12    1
    61    11    10    1
    62     5     2    1
    63    31    32    2
    64    31    30    1
    65     7     6    1
    66     7    10    1
    67    86    87    1
    68    88    87    1
    69    91    90    1
    70    87    90    1
    71    29    30    1
    72    30    33    1
    73     2     3    1
    74     2     1    1
    75    33    34    1
    76     3     4    2
    77    24    23    2
    78    27    26    2
    79    23    22    1
    80    34    35    1
    81    28    26   am
    82    26    25    1
    83    22    25    1
    84    22    21    1
    85    35    36    1
