@<TRIPOS>MOLECULE
tmp/2e6uA00.pdb
 209 202 0 0 0
SMALL
GASTEIGER

@<TRIPOS>ATOM
      1  N          6.7090   14.3980   90.7930 N.3    29  GLY29      -0.1225
      2  CA         6.2110   15.0690   91.9730 C.3    29  GLY29       0.1811
      3  C          4.7110   14.9530   92.1320 C.2    29  GLY29       0.2280
      4  O          4.0920   15.6610   92.9230 O.2    29  GLY29      -0.2866
      5  N          1.1400   13.9680   93.3830 N.3    31  SER31      -0.1217
      6  CA         0.6500   13.8870   94.7750 C.3    31  SER31       0.1889
      7  C         -0.8630   13.6860   94.8240 C.2    31  SER31       0.2288
      8  O         -1.5850   14.3100   94.0500 O.2    31  SER31      -0.2866
      9  CB         1.0170   15.1830   95.5170 C.3    31  SER31       0.2089
     10  OG         0.4950   15.1550   96.8410 O.3    31  SER31      -0.2183
     11  N         -2.5950   14.6840   97.3350 N.3    33  LYS33      -0.1245
     12  CA        -3.1000   15.7880   98.1630 C.3    33  LYS33       0.1561
     13  C         -3.8150   16.8190   97.2910 C.2    33  LYS33       0.2260
     14  O         -3.1850   17.4350   96.4330 O.2    33  LYS33      -0.2867
     15  CB        -1.9450   16.4670   98.9190 C.3    33  LYS33       0.0271
     16  CG        -1.1280   15.5280   99.8120 C.3    33  LYS33       0.0035
     17  CD        -0.0640   16.2930  100.5850 C.3    33  LYS33       0.0206
     18  CE         0.7550   15.3320  101.4470 C.3    33  LYS33       0.1093
     19  NZ         2.0120   15.9630  102.0250 N.3    33  LYS33      -0.1314
     20  N         -2.1240   20.2280   96.6010 N.3    36  ARG36      -0.1231
     21  CA        -0.8630   20.3480   95.8640 C.3    36  ARG36       0.1694
     22  C         -1.1360   20.7520   94.4180 C.2    36  ARG36       0.2592
     23  O         -2.0540   20.2240   93.7790 O.2    36  ARG36      -0.2718
     24  CB        -0.0950   19.0210   95.8860 C.3    36  ARG36       0.0321
     25  CG         0.5930   18.6930   97.2100 C.3    36  ARG36       0.0489
     26  CD         2.0440   19.0010   97.0980 C.3    36  ARG36       0.2205
     27  NE         2.7960   18.7260   98.3260 N.pl3  36  ARG36      -0.0865
     28  CZ         3.5550   19.6220   98.9270 C.cat  36  ARG36       0.5346
     29  NH1        3.6480   20.8480   98.4280 N.pl3  36  ARG36       0.1354
     30  NH2        4.2320   19.2840  100.0060 N.pl3  36  ARG36       0.1354
     31  N         -0.3350   21.6680   93.8850 N.am   37  ASP37      -0.1960
     32  CA        -0.5090   22.0730   92.4850 C.3    37  ASP37       0.1840
     33  C         -0.3580   20.8880   91.5180 C.2    37  ASP37       0.2621
     34  O         -1.0840   20.8000   90.5260 O.2    37  ASP37      -0.2715
     35  CB         0.4590   23.1850   92.1150 C.3    37  ASP37       0.1450
     36  CG         0.1440   24.4930   92.8470 C.2    37  ASP37       0.3671
     37  OD1       -0.4600   24.4300   93.9450 O.co2  37  ASP37      -0.2456
     38  OD2        0.4980   25.5640   92.3250 O.co2  37  ASP37      -0.2456
     39  N          0.5760   19.9760   91.8070 N.am   38  ALA38      -0.1977
     40  CA         0.7050   18.7410   91.0110 C.3    38  ALA38       0.1597
     41  C         -0.6030   17.9470   90.8910 C.2    38  ALA38       0.2287
     42  O         -0.8890   17.3270   89.8340 O.2    38  ALA38      -0.2864
     43  CB         1.8300   17.8210   91.5910 C.3    38  ALA38       0.0319
     44  N         -3.7550   19.2410   91.1720 N.3    40  ILE40      -0.1231
     45  CA        -4.6870   20.0680   90.3960 C.3    40  ILE40       0.1692
     46  C         -4.3690   19.9750   88.8940 C.2    40  ILE40       0.2591
     47  O         -5.2670   19.7340   88.0840 O.2    40  ILE40      -0.2718
     48  CB        -4.6400   21.5540   90.8650 C.3    40  ILE40       0.0266
     49  CG1       -5.0730   21.6420   92.3400 C.3    40  ILE40       0.0019
     50  CG2       -5.5300   22.4330   89.9520 C.3    40  ILE40       0.0020
     51  CD1       -4.8520   23.0530   92.9910 C.3    40  ILE40       0.0001
     52  N         -3.1010   20.1180   88.5330 N.am   41  VAL41      -0.1980
     53  CA        -2.6890   20.0790   87.1180 C.3    41  VAL41       0.1595
     54  C         -2.8770   18.6550   86.5510 C.2    41  VAL41       0.2287
     55  O         -3.3200   18.5040   85.3980 O.2    41  VAL41      -0.2864
     56  CB        -1.2220   20.5760   86.9430 C.3    41  VAL41       0.0276
     57  CG1       -0.6970   20.3450   85.5180 C.3    41  VAL41       0.0022
     58  CG2       -1.1140   22.0780   87.3720 C.3    41  VAL41       0.0022
     59  N          4.7540   10.2440   88.6250 N.3    55  VAL55      -0.1231
     60  CA         6.0790    9.7680   89.0140 C.3    55  VAL55       0.1692
     61  C          6.4180   10.3350   90.3880 C.2    55  VAL55       0.2592
     62  O          6.5060   11.5620   90.5670 O.2    55  VAL55      -0.2718
     63  CB         7.1800   10.1390   87.9780 C.3    55  VAL55       0.0266
     64  CG1        8.5700    9.7080   88.5100 C.3    55  VAL55       0.0020
     65  CG2        6.9130    9.4280   86.6280 C.3    55  VAL55       0.0020
     66  N          6.5360    9.4380   91.3700 N.am   56  ASN56      -0.1961
     67  CA         6.8460    9.8220   92.7470 C.3    56  ASN56       0.1804
     68  C          7.1050    8.5130   93.4960 C.2    56  ASN56       0.2463
     69  O          6.1630    7.7510   93.7010 O.2    56  ASN56      -0.2730
     70  CB         5.6880   10.5660   93.4020 C.3    56  ASN56       0.1195
     71  CG         6.0680   11.1150   94.7740 C.2    56  ASN56       0.2630
     72  OD1        7.0080   10.6230   95.3890 O.2    56  ASN56      -0.2716
     73  ND2        5.3660   12.1460   95.2280 N.am   56  ASN56      -0.0877
     74  N          8.3600    8.2280   93.8500 N.am   57  PRO57      -0.2716
     75  CA         8.6810    6.9440   94.5190 C.3    57  PRO57       0.1536
     76  C          7.9850    6.7660   95.8700 C.2    57  PRO57       0.2598
     77  O          8.0300    5.6440   96.4180 O.2    57  PRO57      -0.2715
     78  CB        10.2080    7.0190   94.7540 C.3    57  PRO57       0.0310
     79  CG        10.6950    8.1080   93.8590 C.3    57  PRO57       0.0237
     80  CD         9.5630    9.0560   93.6030 C.3    57  PRO57       0.0939
     81  N          7.3740    7.8300   96.3970 N.am   58  LYS58      -0.1964
     82  CA         6.6270    7.7430   97.6710 C.3    58  LYS58       0.1728
     83  C          5.2870    7.0170   97.5040 C.2    58  LYS58       0.2616
     84  O          4.7860    6.4120   98.4650 O.2    58  LYS58      -0.2715
     85  CB         6.3770    9.1430   98.2590 C.3    58  LYS58       0.0311
     86  CG         5.5170    9.2160   99.5300 C.3    58  LYS58       0.0038
     87  CD         5.3150   10.6590   99.9850 C.3    58  LYS58       0.0206
     88  CE         4.4470   10.7450  101.2410 C.3    58  LYS58       0.1093
     89  NZ         4.3010   12.1730  101.6970 N.3    58  LYS58      -0.1314
     90  N          4.6740    7.1060   96.3280 N.am   59  TYR59      -0.1974
     91  CA         3.2930    6.6040   96.1580 C.3    59  TYR59       0.1639
     92  C          3.1940    5.4540   95.1610 C.2    59  TYR59       0.2290
     93  O          3.9890    5.3670   94.2080 O.2    59  TYR59      -0.2864
     94  CB         2.3900    7.7320   95.6810 C.3    59  TYR59       0.0560
     95  CG         2.2680    8.8780   96.6490 C.ar   59  TYR59      -0.0198
     96  CD1        1.5900    8.7080   97.8630 C.ar   59  TYR59      -0.0009
     97  CD2        2.8190   10.1400   96.3530 C.ar   59  TYR59      -0.0009
     98  CE1        1.4370    9.7480   98.7610 C.ar   59  TYR59       0.0417
     99  CE2        2.6750   11.2110   97.2680 C.ar   59  TYR59       0.0417
    100  CZ         2.0010   10.9880   98.4720 C.ar   59  TYR59       0.1957
    101  OH         1.8270   12.0020   99.3740 O.3    59  TYR59      -0.2866
    102  N          7.2450   18.9240   88.9330 N.3    84  PHE84      -0.1227
    103  CA         6.6550   19.5600   90.1120 C.3    84  PHE84       0.1736
    104  C          7.5350   19.1890   91.3280 C.2    84  PHE84       0.2595
    105  O          7.0340   18.8040   92.3900 O.2    84  PHE84      -0.2718
    106  CB         5.2340   19.0820   90.3750 C.3    84  PHE84       0.0547
    107  CG         4.1970   19.6260   89.4170 C.ar   84  PHE84      -0.0202
    108  CD1        3.4240   20.7360   89.7770 C.ar   84  PHE84      -0.0042
    109  CD2        3.9600   19.0030   88.1990 C.ar   84  PHE84      -0.0042
    110  CE1        2.4340   21.2430   88.9110 C.ar   84  PHE84      -0.0003
    111  CE2        2.9800   19.4900   87.3230 C.ar   84  PHE84      -0.0003
    112  CZ         2.2180   20.6160   87.6840 C.ar   84  PHE84      -0.0000
    113  N          8.8480   19.2760   91.1460 N.am   85  VAL85      -0.1966
    114  CA         9.7680   19.0370   92.2270 C.3    85  VAL85       0.1727
    115  C         10.7600   20.1900   92.3200 C.2    85  VAL85       0.2616
    116  O         10.9270   20.9460   91.3660 O.2    85  VAL85      -0.2715
    117  CB        10.5340   17.7140   92.0470 C.3    85  VAL85       0.0290
    118  CG1        9.5740   16.5300   92.2300 C.3    85  VAL85       0.0023
    119  CG2       11.2160   17.6380   90.7010 C.3    85  VAL85       0.0023
    120  N         11.4180   20.2900   93.4650 N.am   86  LYS86      -0.1977
    121  CA        12.3050   21.4230   93.7070 C.3    86  LYS86       0.1596
    122  C         13.4760   21.4250   92.7230 C.2    86  LYS86       0.2287
    123  O         13.8580   20.3690   92.2150 O.2    86  LYS86      -0.2864
    124  CB        12.7830   21.3720   95.1480 C.3    86  LYS86       0.0298
    125  CG        11.7510   21.9280   96.1040 C.3    86  LYS86       0.0038
    126  CD        12.2120   21.7600   97.5220 C.3    86  LYS86       0.0206
    127  CE        11.3700   22.5930   98.4370 C.3    86  LYS86       0.1093
    128  NZ        10.8160   21.7360   99.5040 N.3    86  LYS86      -0.1314
    129  N         16.2710   18.6280   92.5370 N.3    89  LEU89      -0.1245
    130  CA        15.7550   17.2960   92.1270 C.3    89  LEU89       0.1561
    131  C         15.5720   17.1590   90.6250 C.2    89  LEU89       0.2260
    132  O         15.5710   16.0350   90.0840 O.2    89  LEU89      -0.2867
    133  CB        14.4030   17.0450   92.7980 C.3    89  LEU89       0.0270
    134  CG        14.5030   16.4580   94.2070 C.3    89  LEU89       0.0019
    135  CD1       13.1170   16.3520   94.8410 C.3    89  LEU89       0.0001
    136  CD2       15.1570   15.0690   94.1300 C.3    89  LEU89       0.0001
    137  N         15.9320   14.0330   87.1420 N.3    93  TYR93      -0.1241
    138  CA        14.7510   13.7480   86.3080 C.3    93  TYR93       0.1605
    139  C         14.9660   14.1190   84.8490 C.2    93  TYR93       0.2264
    140  O         14.4490   13.4620   83.9410 O.2    93  TYR93      -0.2867
    141  CB        13.4830   14.3480   86.8980 C.3    93  TYR93       0.0534
    142  CG        12.9890   13.5040   88.0510 C.ar   93  TYR93      -0.0201
    143  CD1       12.4480   12.2340   87.8120 C.ar   93  TYR93      -0.0009
    144  CD2       13.1110   13.9340   89.3630 C.ar   93  TYR93      -0.0009
    145  CE1       12.0050   11.4100   88.8630 C.ar   93  TYR93       0.0417
    146  CE2       12.6660   13.1040   90.4490 C.ar   93  TYR93       0.0417
    147  CZ        12.1030   11.8530   90.1660 C.ar   93  TYR93       0.1957
    148  OH        11.6500   11.0350   91.1920 O.3    93  TYR93      -0.2866
    149  N          7.7340   23.6190   85.7140 N.3   108  GLN108     -0.1231
    150  CA         6.5930   24.3460   86.3050 C.3   108  GLN108      0.1698
    151  C          7.1390   25.4820   87.1980 C.2   108  GLN108      0.2592
    152  O          8.3490   25.5670   87.3570 O.2   108  GLN108     -0.2718
    153  CB         5.7040   23.4210   87.1390 C.3   108  GLN108      0.0381
    154  CG         4.9660   22.3520   86.3010 C.3   108  GLN108      0.0905
    155  CD         3.6560   22.8540   85.6720 C.2   108  GLN108      0.2608
    156  OE1        2.8930   23.6780   86.2570 O.2   108  GLN108     -0.2717
    157  NE2        3.3450   22.3050   84.5210 N.am  108  GLN108     -0.0878
    158  N          6.2660   26.3230   87.7670 N.am  109  TYR109     -0.1962
    159  CA         6.7580   27.4750   88.5580 C.3   109  TYR109      0.1771
    160  C          7.5660   26.9590   89.7380 C.2   109  TYR109      0.2620
    161  O          7.1760   25.9850   90.3870 O.2   109  TYR109     -0.2715
    162  CB         5.6410   28.3490   89.1280 C.3   109  TYR109      0.0574
    163  CG         4.5500   28.7810   88.1820 C.ar  109  TYR109     -0.0198
    164  CD1        4.8300   29.1970   86.8900 C.ar  109  TYR109     -0.0009
    165  CD2        3.2270   28.8370   88.6220 C.ar  109  TYR109     -0.0009
    166  CE1        3.8010   29.6150   86.0300 C.ar  109  TYR109      0.0417
    167  CE2        2.1930   29.2530   87.7700 C.ar  109  TYR109      0.0417
    168  CZ         2.4980   29.6430   86.4880 C.ar  109  TYR109      0.1957
    169  OH         1.4720   30.0670   85.6690 O.3   109  TYR109     -0.2866
    170  N          8.6870   27.6290   89.9990 N.am  110  ASN110     -0.1958
    171  CA         9.5310   27.3480   91.1610 C.3   110  ASN110      0.1819
    172  C         10.3810   26.0770   91.0600 C.2   110  ASN110      0.2621
    173  O         10.9470   25.6380   92.0610 O.2   110  ASN110     -0.2715
    174  CB         8.6950   27.3880   92.4530 C.3   110  ASN110      0.1195
    175  CG         7.9970   28.7530   92.6600 C.2   110  ASN110      0.2630
    176  OD1        8.5370   29.8060   92.3000 O.2   110  ASN110     -0.2716
    177  ND2        6.7960   28.7280   93.2230 N.am  110  ASN110     -0.0877
    178  N         10.4850   25.5010   89.8560 N.am  111  THR111     -0.1951
    179  CA        11.2490   24.2740   89.6480 C.3   111  THR111      0.1897
    180  C         12.4960   24.4300   88.7820 C.2   111  THR111      0.2313
    181  O         13.3180   23.4990   88.6450 O.2   111  THR111     -0.2863
    182  CB        10.3700   23.1640   89.0040 C.3   111  THR111      0.1794
    183  OG1       10.1810   23.4520   87.6030 O.3   111  THR111     -0.2208
    184  CG2        9.0300   23.0500   89.7320 C.3   111  THR111      0.0378
    185  N          2.9420   26.9300   83.2980 N.3   132  CYS132     -0.1235
    186  CA         2.1200   25.8270   83.7800 C.3   132  CYS132      0.1677
    187  C          1.4240   25.1520   82.5900 C.2   132  CYS132      0.2270
    188  O          0.8420   25.8430   81.7590 O.2   132  CYS132     -0.2867
    189  CB         1.0670   26.3390   84.7560 C.3   132  CYS132      0.0956
    190  SG        -0.1140   25.0690   85.2900 S.3   132  CYS132     -0.0801
    191  N         -1.3760   23.4810   82.6160 N.3   134  MET134     -0.1230
    192  CA        -2.7930   23.8110   82.7300 C.3   134  MET134      0.1702
    193  C         -3.0840   25.2420   82.2480 C.2   134  MET134      0.2592
    194  O         -4.0140   25.4750   81.4680 O.2   134  MET134     -0.2718
    195  CB        -3.2640   23.6140   84.1600 C.3   134  MET134      0.0401
    196  CG        -4.6630   24.1320   84.4620 C.3   134  MET134      0.0596
    197  SD        -5.2710   23.6190   86.0680 S.3   134  MET134     -0.1393
    198  CE        -4.6100   24.8940   87.1510 C.3   134  MET134      0.0692
    199  N         -2.2980   26.1970   82.7310 N.am  135  ARG135     -0.1980
    200  CA        -2.5330   27.6090   82.3900 C.3   135  ARG135      0.1597
    201  C         -2.3060   27.8680   80.9140 C.2   135  ARG135      0.2287
    202  O         -3.0960   28.5810   80.2910 O.2   135  ARG135     -0.2864
    203  CB        -1.6720   28.5250   83.2490 C.3   135  ARG135      0.0334
    204  CG        -2.1590   28.5680   84.7150 C.3   135  ARG135      0.0492
    205  CD        -3.2710   29.6010   84.9340 C.3   135  ARG135      0.2205
    206  NE        -3.7120   29.6620   86.3320 N.pl3 135  ARG135     -0.0865
    207  CZ        -4.9100   29.2650   86.7740 C.cat 135  ARG135      0.5346
    208  NH1       -5.8230   28.7680   85.9370 N.pl3 135  ARG135      0.1354
    209  NH2       -5.2080   29.3750   88.0630 N.pl3 135  ARG135      0.1354
@<TRIPOS>BOND
     1   202   201    2
     2   201   200    1
     3   194   193    2
     4   188   187    2
     5   193   192    1
     6   193   199   am
     7   200   199    1
     8   200   203    1
     9   187   186    1
    10   191   192    1
    11   192   195    1
    12   203   204    1
    13   185   186    1
    14   186   189    1
    15   140   139    2
    16   195   196    1
    17   196   197    1
    18   157   155   am
    19   204   205    1
    20   189   190    1
    21   139   138    1
    22   205   206    1
    23    55    54    2
    24    57    56    1
    25   169   168    1
    26   155   156    2
    27   155   154    1
    28   149   150    1
    29   208   207    1
    30   166   168   ar
    31   166   164   ar
    32   197   198    1
    33   154   153    1
    34   150   153    1
    35   150   151    1
    36   138   141    1
    37   138   137    1
    38   206   207    2
    39   168   167   ar
    40    54    53    1
    41    65    63    1
    42   207   209    1
    43   164   163   ar
    44   141   142    1
    45    56    53    1
    46    56    58    1
    47    53    52    1
    48   151   152    2
    49   151   158   am
    50   111   112   ar
    51   111   109   ar
    52   183   182    1
    53   112   110   ar
    54   158   159    1
    55   167   165   ar
    56   143   142   ar
    57   143   145   ar
    58    63    64    1
    59    63    60    1
    60   142   144   ar
    61    47    46    2
    62   163   165   ar
    63   163   162    1
    64   109   107   ar
    65    52    46   am
    66   159   162    1
    67   159   160    1
    68    59    60    1
    69   181   180    2
    70   180   179    1
    71   145   147   ar
    72    46    45    1
    73   110   108   ar
    74   102   103    1
    75   182   179    1
    76   182   184    1
    77    60    61    1
    78   144   146   ar
    79   107   108   ar
    80   107   106    1
    81   179   178    1
    82   160   170   am
    83   160   161    2
    84    42    41    2
    85   178   172   am
    86    50    48    1
    87   170   171    1
    88   132   131    2
    89   103   106    1
    90   103   104    1
    91   147   146   ar
    92   147   148    1
    93    61    62    2
    94    61    66   am
    95    45    48    1
    96    45    44    1
    97    34    33    2
    98   131   130    1
    99   119   117    1
   100     1     2    1
   101    48    49    1
   102    41    40    1
   103    40    43    1
   104    40    39    1
   105   172   171    1
   106   172   173    2
   107   113   104   am
   108   113   114    1
   109   171   174    1
   110   104   105    2
   111   116   115    2
   112    66    67    1
   113    33    39   am
   114    33    32    1
   115     2     3    1
   116   117   114    1
   117   117   118    1
   118    35    32    1
   119    35    36    1
   120   130   129    1
   121   130   133    1
   122     3     4    2
   123   123   122    2
   124   114   115    1
   125   176   175    2
   126   115   120   am
   127    38    36   ar
   128    49    51    1
   129   174   175    1
   130    32    31    1
   131   175   177   am
   132   122   121    1
   133    67    70    1
   134    67    68    1
   135   133   134    1
   136    36    37   ar
   137     5     6    1
   138    70    71    1
   139   120   121    1
   140    68    69    2
   141    68    74   am
   142    80    74    1
   143    80    79    1
   144   121   124    1
   145    23    22    2
   146    74    75    1
   147    79    78    1
   148    31    22   am
   149     8     7    2
   150   136   134    1
   151   134   135    1
   152    93    92    2
   153    22    21    1
   154    75    78    1
   155    75    76    1
   156    71    73   am
   157    71    72    2
   158     6     7    1
   159     6     9    1
   160   124   125    1
   161    92    91    1
   162     9    10    1
   163    94    91    1
   164    94    95    1
   165    21    24    1
   166    21    20    1
   167    76    81   am
   168    76    77    2
   169    24    25    1
   170   125   126    1
   171    91    90    1
   172    90    83   am
   173    97    95   ar
   174    97    99   ar
   175    81    82    1
   176    14    13    2
   177    95    96   ar
   178    26    25    1
   179    26    27    1
   180    99   100   ar
   181    13    12    1
   182    11    12    1
   183    83    82    1
   184    83    84    2
   185   126   127    1
   186    82    85    1
   187    96    98   ar
   188    12    15    1
   189    85    86    1
   190    27    28    2
   191    29    28    1
   192   127   128    1
   193   100    98   ar
   194   100   101    1
   195    15    16    1
   196    28    30    1
   197    86    87    1
   198    16    17    1
   199    87    88    1
   200    17    18    1
   201    88    89    1
   202    18    19    1
