@<TRIPOS>MOLECULE
tmp/2e6vB00.pdb
 86 83 0 0 0
SMALL
GASTEIGER

@<TRIPOS>ATOM
      1  N        -36.3760   60.5890   40.3100 N.3    69  LEU69      -0.1245
      2  CA       -35.8840   60.5110   38.9430 C.3    69  LEU69       0.1561
      3  C        -34.3730   60.6570   38.8030 C.2    69  LEU69       0.2260
      4  O        -33.9000   61.5260   38.0720 O.2    69  LEU69      -0.2867
      5  CB       -36.5990   61.5540   38.0710 C.3    69  LEU69       0.0270
      6  CG       -38.0860   61.4340   37.6880 C.3    69  LEU69       0.0019
      7  CD1      -38.3740   60.1640   36.9060 C.3    69  LEU69       0.0001
      8  CD2      -39.0080   61.5510   38.9090 C.3    69  LEU69       0.0001
      9  N        -30.3290   58.2420   39.0040 N.3    71  GLY71      -0.1210
     10  CA       -29.6740   56.9200   39.0230 C.3    71  GLY71       0.1956
     11  C        -28.2410   56.9270   38.5280 C.2    71  GLY71       0.2611
     12  O        -27.7150   57.9780   38.2280 O.2    71  GLY71      -0.2717
     13  N        -27.5650   55.7760   38.4790 N.am   72  ASP72      -0.1973
     14  CA       -28.0450   54.4830   38.9730 C.3    72  ASP72       0.1709
     15  C        -27.4040   54.1040   40.3010 C.2    72  ASP72       0.2293
     16  O        -27.9800   53.3700   41.0900 O.2    72  ASP72      -0.2864
     17  CB       -27.7540   53.3910   37.9440 C.3    72  ASP72       0.1436
     18  CG       -28.7970   53.3230   36.8590 C.2    72  ASP72       0.3671
     19  OD1      -28.4550   53.6660   35.7130 O.co2  72  ASP72      -0.2456
     20  OD2      -29.9580   52.9250   37.1380 O.co2  72  ASP72      -0.2456
     21  N        -31.8180   53.7910   42.3620 N.3   105  TYR105     -0.1228
     22  CA       -33.0360   53.6990   41.5850 C.3   105  TYR105      0.1721
     23  C        -33.7020   52.3060   41.5320 C.2   105  TYR105      0.2437
     24  O        -33.0750   51.3290   41.1430 O.2   105  TYR105     -0.2733
     25  CB       -32.7560   54.2220   40.1700 C.3   105  TYR105      0.0547
     26  CG       -33.9020   54.0390   39.2360 C.ar  105  TYR105     -0.0200
     27  CD1      -35.0550   54.8100   39.3570 C.ar  105  TYR105     -0.0009
     28  CD2      -33.8490   53.0750   38.2400 C.ar  105  TYR105     -0.0009
     29  CE1      -36.1120   54.6210   38.5000 C.ar  105  TYR105      0.0417
     30  CE2      -34.9010   52.8860   37.3870 C.ar  105  TYR105      0.0417
     31  CZ       -36.0220   53.6540   37.5280 C.ar  105  TYR105      0.1957
     32  OH       -37.0540   53.4500   36.6780 O.3   105  TYR105     -0.2866
     33  N        -34.9910   52.2320   41.8870 N.am  106  PRO106     -0.2718
     34  CA       -35.7560   50.9820   41.7520 C.3   106  PRO106      0.1535
     35  C        -36.0030   50.6410   40.3060 C.2   106  PRO106      0.2598
     36  O        -36.8420   51.2670   39.6750 O.2   106  PRO106     -0.2715
     37  CB       -37.1090   51.2910   42.4070 C.3   106  PRO106      0.0310
     38  CG       -36.9830   52.6290   43.0540 C.3   106  PRO106      0.0237
     39  CD       -35.8070   53.3320   42.4210 C.3   106  PRO106      0.0939
     40  N        -35.2700   49.6710   39.7750 N.am  107  ASN107     -0.1973
     41  CA       -35.5810   49.1460   38.4610 C.3   107  ASN107      0.1688
     42  C        -36.8290   48.2680   38.5000 C.2   107  ASN107      0.2292
     43  O        -37.4880   48.0650   37.4900 O.2   107  ASN107     -0.2864
     44  CB       -34.4130   48.3210   37.9220 C.3   107  ASN107      0.1181
     45  CG       -33.1740   49.1600   37.6580 C.2   107  ASN107      0.2629
     46  OD1      -32.4440   49.5490   38.5910 O.2   107  ASN107     -0.2716
     47  ND2      -32.9130   49.4260   36.3820 N.am  107  ASN107     -0.0877
     48  N        -40.3210   47.6610   39.2660 N.3   109  GLU109     -0.1245
     49  CA       -41.5310   48.4680   39.4620 C.3   109  GLU109      0.1567
     50  C        -42.4590   47.9980   40.5950 C.2   109  GLU109      0.2260
     51  O        -42.9960   48.8220   41.3130 O.2   109  GLU109     -0.2867
     52  CB       -42.2940   48.6310   38.1500 C.3   109  GLU109      0.0388
     53  CG       -41.6440   49.6430   37.1960 C.3   109  GLU109      0.1160
     54  CD       -42.1910   49.5320   35.7830 C.2   109  GLU109      0.3649
     55  OE1      -42.7740   50.5210   35.2810 O.co2 109  GLU109     -0.2457
     56  OE2      -42.0490   48.4370   35.1830 O.co2 109  GLU109     -0.2457
     57  N        -30.0450   43.1670   36.9840 N.3   131  HIS131     -0.1241
     58  CA       -30.1960   44.6090   37.0550 C.3   131  HIS131      0.1621
     59  C        -31.6580   45.0720   37.1560 C.2   131  HIS131      0.2264
     60  O        -31.9890   45.9210   37.9840 O.2   131  HIS131     -0.2867
     61  CB       -29.5060   45.2620   35.8560 C.3   131  HIS131      0.0745
     62  CG       -29.5890   46.7520   35.8620 C.ar  131  HIS131      0.0817
     63  ND1      -28.7390   47.5400   36.6090 N.ar  131  HIS131     -0.2268
     64  CD2      -30.4380   47.6000   35.2350 C.ar  131  HIS131      0.1154
     65  CE1      -29.0650   48.8110   36.4460 C.ar  131  HIS131      0.1986
     66  NE2      -30.0770   48.8740   35.6010 N.ar  131  HIS131     -0.2212
     67  N        -28.1050   55.5580   33.3240 N.3   199  GLY199     -0.1210
     68  CA       -28.8500   55.1070   32.1480 C.3   199  GLY199      0.1956
     69  C        -29.7140   56.2460   31.6310 C.2   199  GLY199      0.2612
     70  O        -29.2000   57.3020   31.2860 O.2   199  GLY199     -0.2717
     71  N        -31.0250   56.0490   31.5760 N.am  200  ASP200     -0.1959
     72  CA       -31.9340   57.1230   31.1620 C.3   200  ASP200      0.1840
     73  C        -32.0500   58.1350   32.3090 C.2   200  ASP200      0.2621
     74  O        -32.4760   59.2740   32.1010 O.2   200  ASP200     -0.2715
     75  CB       -33.3280   56.5740   30.7880 C.3   200  ASP200      0.1450
     76  CG       -33.3130   55.6570   29.5490 C.2   200  ASP200      0.3671
     77  OD1      -34.3470   55.0200   29.2860 O.co2 200  ASP200     -0.2456
     78  OD2      -32.2940   55.5650   28.8150 O.co2 200  ASP200     -0.2456
     79  N        -31.6990   57.7000   33.5230 N.am  201  LEU201     -0.1977
     80  CA       -31.6000   58.5980   34.6890 C.3   201  LEU201      0.1596
     81  C        -30.1330   58.7670   35.1320 C.2   201  LEU201      0.2287
     82  O        -29.2920   57.9170   34.8400 O.2   201  LEU201     -0.2864
     83  CB       -32.4920   58.1230   35.8460 C.3   201  LEU201      0.0297
     84  CG       -34.0010   58.0620   35.5210 C.3   201  LEU201      0.0022
     85  CD1      -34.7940   57.3100   36.5810 C.3   201  LEU201      0.0001
     86  CD2      -34.6140   59.4790   35.2540 C.3   201  LEU201      0.0001
@<TRIPOS>BOND
     1    78    76   ar
     2    77    76   ar
     3    76    75    1
     4    75    72    1
     5    72    71    1
     6    72    73    1
     7    70    69    2
     8    71    69   am
     9    69    68    1
    10    74    73    2
    11    68    67    1
    12    73    79   am
    13    79    80    1
    14    80    81    1
    15    80    83    1
    16    82    81    2
    17    56    54   ar
    18    64    66   ar
    19    64    62   ar
    20    86    84    1
    21    55    54   ar
    22    84    83    1
    23    84    85    1
    24    66    65   ar
    25    19    18   ar
    26    54    53    1
    27    61    62    1
    28    61    58    1
    29    62    63   ar
    30    47    45   am
    31    65    63   ar
    32    32    31    1
    33    18    20   ar
    34    18    17    1
    35     7     6    1
    36    57    58    1
    37    58    59    1
    38    59    60    2
    39    53    52    1
    40    30    31   ar
    41    30    28   ar
    42    43    42    2
    43    31    29   ar
    44    45    44    1
    45    45    46    2
    46     6     5    1
    47     6     8    1
    48    44    41    1
    49    17    14    1
    50     5     2    1
    51     4     3    2
    52    52    49    1
    53    12    11    2
    54    28    26   ar
    55    41    42    1
    56    41    40    1
    57    13    11   am
    58    13    14    1
    59    29    27   ar
    60    11    10    1
    61     3     2    1
    62     2     1    1
    63    14    15    1
    64     9    10    1
    65    26    27   ar
    66    26    25    1
    67    48    49    1
    68    49    50    1
    69    36    35    2
    70    40    35   am
    71    25    22    1
    72    15    16    2
    73    35    34    1
    74    50    51    2
    75    24    23    2
    76    23    22    1
    77    23    33   am
    78    22    21    1
    79    34    33    1
    80    34    37    1
    81    33    39    1
    82    37    38    1
    83    39    38    1
