@<TRIPOS>MOLECULE
tmp/2e74D00.pdb
 81 77 0 0 0
SMALL
GASTEIGER

@<TRIPOS>ATOM
      1  N        -30.8740  109.9170   16.7060 N.3     5  MET5       -0.1245
      2  CA       -31.5700  109.0290   17.6160 C.3     5  MET5        0.1570
      3  C        -33.0770  109.1470   17.4420 C.2     5  MET5        0.2261
      4  O        -33.8100  108.1750   17.6420 O.2     5  MET5       -0.2867
      5  CB       -31.1610  109.3260   19.0600 C.3     5  MET5        0.0387
      6  CG       -29.9030  108.5810   19.5190 C.3     5  MET5        0.0595
      7  SD       -30.1450  106.7880   19.7060 S.3     5  MET5       -0.1393
      8  CE       -28.7790  106.3380   20.7870 C.3     5  MET5        0.0692
      9  N        -34.2580  106.9610   14.4100 N.3     8  ARG8       -0.1231
     10  CA       -34.0080  105.5440   14.6730 C.3     8  ARG8        0.1694
     11  C        -35.1090  104.9900   15.5740 C.2     8  ARG8        0.2591
     12  O        -35.6070  103.8770   15.3670 O.2     8  ARG8       -0.2718
     13  CB       -32.6580  105.3310   15.3540 C.3     8  ARG8        0.0321
     14  CG       -31.4570  105.7610   14.5620 C.3     8  ARG8        0.0489
     15  CD       -30.2100  105.4390   15.3440 C.3     8  ARG8        0.2205
     16  NE       -29.1620  106.4090   15.0640 N.pl3   8  ARG8       -0.0865
     17  CZ       -28.0330  106.5070   15.7550 C.cat   8  ARG8        0.5346
     18  NH1      -27.8180  105.6810   16.7730 N.pl3   8  ARG8        0.1354
     19  NH2      -27.1270  107.4290   15.4300 N.pl3   8  ARG8        0.1354
     20  N        -35.4730  105.7680   16.5860 N.am    9  GLN9       -0.1979
     21  CA       -36.5850  105.3970   17.4270 C.3     9  GLN9        0.1601
     22  C        -37.8460  105.2900   16.5870 C.2     9  GLN9        0.2287
     23  O        -38.6680  104.4050   16.8170 O.2     9  GLN9       -0.2864
     24  CB       -36.7720  106.4000   18.5550 C.3     9  GLN9        0.0394
     25  CG       -35.6730  106.3490   19.5920 C.3     9  GLN9        0.0908
     26  CD       -35.9630  107.2480   20.7710 C.2     9  GLN9        0.2608
     27  OE1      -36.5320  108.3270   20.6130 O.2     9  GLN9       -0.2717
     28  NE2      -35.5780  106.8080   21.9640 N.am    9  GLN9       -0.0878
     29  N        -37.6800  101.9330   14.7820 N.3    12  ASN12      -0.1225
     30  CA       -37.9680  100.9360   15.8180 C.3    12  ASN12       0.1785
     31  C        -39.4730  100.8080   16.1020 C.2    12  ASN12       0.2597
     32  O        -40.0400   99.7090   16.0220 O.2    12  ASN12      -0.2718
     33  CB       -37.2040  101.2410   17.1060 C.3    12  ASN12       0.1169
     34  CG       -35.7060  100.9940   16.9770 C.2    12  ASN12       0.2627
     35  OD1      -35.2630  100.1050   16.2420 O.2    12  ASN12      -0.2716
     36  ND2      -34.9180  101.7710   17.7120 N.am   12  ASN12      -0.0877
     37  N        -40.1130  101.9350   16.4260 N.am   13  LEU13      -0.1966
     38  CA       -41.5630  101.9820   16.6380 C.3    13  LEU13       0.1728
     39  C        -42.3260  101.2390   15.5420 C.2    13  LEU13       0.2616
     40  O        -43.1570  100.3890   15.8340 O.2    13  LEU13      -0.2715
     41  CB       -42.0600  103.4340   16.7110 C.3    13  LEU13       0.0311
     42  CG       -43.5700  103.6430   16.9260 C.3    13  LEU13       0.0022
     43  CD1      -44.0180  103.0280   18.2450 C.3    13  LEU13       0.0001
     44  CD2      -43.9580  105.1120   16.8730 C.3    13  LEU13       0.0001
     45  N        -42.0540  101.5790   14.2850 N.am   14  LEU14      -0.1977
     46  CA       -42.6860  100.9090   13.1610 C.3    14  LEU14       0.1596
     47  C        -42.4070   99.4140   13.2100 C.2    14  LEU14       0.2287
     48  O        -43.3370   98.6040   13.1880 O.2    14  LEU14      -0.2864
     49  CB       -42.1870  101.4820   11.8330 C.3    14  LEU14       0.0297
     50  CG       -42.9350  102.6540   11.1880 C.3    14  LEU14       0.0022
     51  CD1      -44.4120  102.3260   11.0220 C.3    14  LEU14       0.0001
     52  CD2      -42.7670  103.9270   11.9910 C.3    14  LEU14       0.0001
     53  N        -40.6690   97.0840   15.5800 N.3    16  PHE16      -0.1227
     54  CA       -41.0570   96.3190   16.7540 C.3    16  PHE16       0.1736
     55  C        -42.5550   96.5040   17.0460 C.2    16  PHE16       0.2596
     56  O        -43.2450   95.5900   17.5310 O.2    16  PHE16      -0.2718
     57  CB       -40.1510   96.6840   17.9330 C.3    16  PHE16       0.0547
     58  CG       -38.6860   96.4340   17.6480 C.ar   16  PHE16      -0.0202
     59  CD1      -38.2700   95.2030   17.1200 C.ar   16  PHE16      -0.0042
     60  CD2      -37.7260   97.4260   17.8860 C.ar   16  PHE16      -0.0042
     61  CE1      -36.9310   94.9610   16.8500 C.ar   16  PHE16      -0.0003
     62  CE2      -36.3830   97.1930   17.6190 C.ar   16  PHE16      -0.0003
     63  CZ       -35.9850   95.9600   17.1030 C.ar   16  PHE16      -0.0000
     64  N        -43.0550   97.6810   16.7020 N.am   17  GLY17      -0.1942
     65  CA       -44.4730   97.9200   16.7420 C.3    17  GLY17       0.2014
     66  C        -45.2390   96.8220   16.0390 C.2    17  GLY17       0.2639
     67  O        -45.9960   96.0850   16.6720 O.2    17  GLY17      -0.2714
     68  N        -45.0440   96.7010   14.7300 N.am   18  THR18      -0.1950
     69  CA       -45.7910   95.7180   13.9510 C.3    18  THR18       0.1897
     70  C        -45.4450   94.2900   14.3400 C.2    18  THR18       0.2313
     71  O        -46.3030   93.4120   14.2890 O.2    18  THR18      -0.2863
     72  CB       -45.5200   95.8610   12.4600 C.3    18  THR18       0.1794
     73  OG1      -44.1010   95.8330   12.2410 O.3    18  THR18      -0.2208
     74  CG2      -46.0980   97.1600   11.9430 C.3    18  THR18       0.0378
     75  N        -44.8630   93.2890   17.3260 N.3    20  THR20      -0.1218
     76  CA       -45.7590   93.0530   18.4490 C.3    20  THR20       0.1862
     77  C        -47.1500   92.6810   17.9570 C.2    20  THR20       0.2287
     78  O        -47.7380   91.7110   18.4510 O.2    20  THR20      -0.2866
     79  CB       -45.8610   94.2550   19.3950 C.3    20  THR20       0.1770
     80  OG1      -44.6290   94.3990   20.1090 O.3    20  THR20      -0.2211
     81  CG2      -46.9720   94.0290   20.4050 C.3    20  THR20       0.0375
@<TRIPOS>BOND
     1    51    50    1
     2    50    49    1
     3    50    52    1
     4    49    46    1
     5    74    72    1
     6    73    72    1
     7    72    69    1
     8    46    47    1
     9    46    45    1
    10    48    47    2
    11    69    70    1
    12    69    68    1
    13    45    39   am
    14    71    70    2
    15     9    10    1
    16    14    15    1
    17    14    13    1
    18    10    13    1
    19    10    11    1
    20    68    66   am
    21    29    30    1
    22    16    15    1
    23    16    17    2
    24    12    11    2
    25    19    17    1
    26    39    40    2
    27    39    38    1
    28    11    20   am
    29    53    54    1
    30    17    18    1
    31    30    31    1
    32    30    33    1
    33    32    31    2
    34    66    67    2
    35    66    65    1
    36    31    37   am
    37    35    34    2
    38    37    38    1
    39    20    21    1
    40    22    23    2
    41    22    21    1
    42    38    41    1
    43    64    65    1
    44    64    55   am
    45     1     2    1
    46    41    42    1
    47    54    55    1
    48    54    57    1
    49    61    63   ar
    50    61    59   ar
    51    44    42    1
    52    42    43    1
    53    34    33    1
    54    34    36   am
    55    55    56    2
    56    63    62   ar
    57    59    58   ar
    58    75    76    1
    59    21    24    1
    60     3     2    1
    61     3     4    2
    62     2     5    1
    63    62    60   ar
    64    58    60   ar
    65    58    57    1
    66    77    76    1
    67    77    78    2
    68    76    79    1
    69    24    25    1
    70     5     6    1
    71    79    80    1
    72    79    81    1
    73     6     7    1
    74    25    26    1
    75     7     8    1
    76    27    26    2
    77    26    28   am
