@<TRIPOS>MOLECULE
tmp/2e76B02.pdb
 206 199 0 0 0
SMALL
GASTEIGER

@<TRIPOS>ATOM
      1  N        -43.1150   59.7820    5.7300 N.3    79  TRP79      -0.1227
      2  CA       -42.4310   59.7760    4.4540 C.3    79  TRP79       0.1737
      3  C        -40.9220   59.4860    4.5090 C.2    79  TRP79       0.2595
      4  O        -40.3950   58.5800    3.7930 O.2    79  TRP79      -0.2718
      5  CB       -42.6520   61.1320    3.8320 C.3    79  TRP79       0.0564
      6  CG       -41.5210   61.9130    3.9670 C.ar   79  TRP79       0.0003
      7  CD1      -40.3140   61.7080    3.3720 C.ar   79  TRP79       0.0946
      8  CD2      -41.4000   63.0350    4.7460 C.ar   79  TRP79       0.0152
      9  NE1      -39.4030   62.6790    3.7220 N.ar   79  TRP79      -0.2442
     10  CE2      -40.0190   63.5280    4.5710 C.ar   79  TRP79       0.0810
     11  CE3      -42.2770   63.6760    5.5810 C.ar   79  TRP79       0.0012
     12  CZ2      -39.4960   64.6400    5.1820 C.ar   79  TRP79       0.0191
     13  CZ3      -41.7860   64.8180    6.1810 C.ar   79  TRP79       0.0001
     14  CH2      -40.3690   65.2900    5.9830 C.ar   79  TRP79       0.0015
     15  N        -40.2560   60.3400    5.3170 N.am   80  TYR80      -0.1962
     16  CA       -38.8420   60.2500    5.7340 C.3    80  TYR80       0.1771
     17  C        -38.4870   58.8090    6.2430 C.2    80  TYR80       0.2619
     18  O        -37.3130   58.3500    6.1920 O.2    80  TYR80      -0.2715
     19  CB       -38.5110   61.3660    6.7950 C.3    80  TYR80       0.0574
     20  CG       -39.2760   61.1620    8.0790 C.ar   80  TYR80      -0.0198
     21  CD1      -39.0900   60.0400    8.8710 C.ar   80  TYR80      -0.0009
     22  CD2      -40.2350   62.0170    8.4300 C.ar   80  TYR80      -0.0009
     23  CE1      -39.8610   59.8470   10.0150 C.ar   80  TYR80       0.0417
     24  CE2      -41.0260   61.8310    9.5400 C.ar   80  TYR80       0.0417
     25  CZ       -40.8570   60.7650   10.3220 C.ar   80  TYR80       0.1957
     26  OH       -41.7240   60.6130   11.3960 O.3    80  TYR80      -0.2866
     27  N        -39.5000   58.0840    6.6920 N.am   81  LEU81      -0.1977
     28  CA       -39.3830   56.6430    6.7140 C.3    81  LEU81       0.1596
     29  C        -39.5010   55.7630    5.4050 C.2    81  LEU81       0.2287
     30  O        -39.4210   54.5400    5.5430 O.2    81  LEU81      -0.2864
     31  CB       -40.3800   56.1180    7.7140 C.3    81  LEU81       0.0297
     32  CG       -39.8940   56.0890    9.1570 C.3    81  LEU81       0.0022
     33  CD1      -40.0610   54.6380    9.6930 C.3    81  LEU81       0.0001
     34  CD2      -38.5360   56.4050    8.8390 C.3    81  LEU81       0.0001
     35  N        -37.8970   55.0660    2.4300 N.3    83  PRO83      -0.2102
     36  CA       -36.5950   54.5790    1.9510 C.3    83  PRO83       0.1504
     37  C        -36.3590   53.4270    2.7780 C.2    83  PRO83       0.2575
     38  O        -36.4160   52.3250    2.2960 O.2    83  PRO83      -0.2718
     39  CB       -35.6340   55.6770    2.3200 C.3    83  PRO83       0.0282
     40  CG       -36.4940   56.9030    2.1730 C.3    83  PRO83       0.0208
     41  CD       -37.9410   56.5300    2.5120 C.3    83  PRO83       0.0893
     42  N        -36.2380   53.6210    4.0720 N.am   84  VAL84      -0.1980
     43  CA       -36.0080   52.4010    4.8740 C.3    84  VAL84       0.1595
     44  C        -37.0750   51.2950    4.6200 C.2    84  VAL84       0.2287
     45  O        -36.7870   50.1600    4.3410 O.2    84  VAL84      -0.2864
     46  CB       -35.8120   52.7190    6.3700 C.3    84  VAL84       0.0276
     47  CG1      -35.3640   51.5020    7.0690 C.3    84  VAL84       0.0022
     48  CG2      -34.7560   53.8370    6.5360 C.3    84  VAL84       0.0022
     49  N        -36.4520   49.1470    1.5780 N.3    87  ILE87      -0.1245
     50  CA       -35.4730   48.1350    1.9950 C.3    87  ILE87       0.1561
     51  C        -36.1160   47.0120    2.8020 C.2    87  ILE87       0.2260
     52  O        -36.3820   45.9650    2.2810 O.2    87  ILE87      -0.2867
     53  CB       -34.4750   48.8100    2.8920 C.3    87  ILE87       0.0252
     54  CG1      -33.6880   49.8160    2.1030 C.3    87  ILE87       0.0019
     55  CG2      -33.5860   47.8090    3.6770 C.3    87  ILE87       0.0019
     56  CD1      -32.7130   50.5070    2.9630 C.3    87  ILE87       0.0001
     57  N        -32.9680   44.6970    9.1600 N.3    98  VAL98      -0.1245
     58  CA       -32.8980   45.3530   10.4180 C.3    98  VAL98       0.1561
     59  C        -31.4770   45.9080   10.6970 C.2    98  VAL98       0.2260
     60  O        -31.3160   47.1230   10.9630 O.2    98  VAL98      -0.2867
     61  CB       -33.4000   44.3910   11.4060 C.3    98  VAL98       0.0252
     62  CG1      -33.2010   44.9340   12.8880 C.3    98  VAL98       0.0019
     63  CG2      -34.8510   43.9680   10.9350 C.3    98  VAL98       0.0019
     64  N        -29.5190   46.3570    8.2100 N.3   100  LEU100     -0.1231
     65  CA       -29.4670   47.2940    7.1490 C.3   100  LEU100      0.1693
     66  C        -30.0460   48.6600    7.4580 C.2   100  LEU100      0.2592
     67  O        -29.5510   49.6720    6.9340 O.2   100  LEU100     -0.2718
     68  CB       -30.2510   46.7220    6.0490 C.3   100  LEU100      0.0284
     69  CG       -29.3890   45.8090    5.2480 C.3   100  LEU100      0.0019
     70  CD1      -30.2260   44.4770    4.8810 C.3   100  LEU100      0.0001
     71  CD2      -28.9260   46.7720    4.0660 C.3   100  LEU100      0.0001
     72  N        -31.1280   48.6780    8.2360 N.am  101  MET101     -0.1965
     73  CA       -31.6350   49.8880    8.7900 C.3   101  MET101      0.1736
     74  C        -30.5300   50.5150    9.6830 C.2   101  MET101      0.2616
     75  O        -29.8730   51.5030    9.3060 O.2   101  MET101     -0.2715
     76  CB       -32.8020   49.4830    9.6200 C.3   101  MET101      0.0427
     77  CG       -33.9140   50.4970    9.7050 C.3   101  MET101      0.0599
     78  SD       -35.5220   49.6470    9.4110 S.3   101  MET101     -0.1393
     79  CE       -35.9310   48.7300   10.9590 C.3   101  MET101      0.0692
     80  N        -30.3220   49.9200   10.8520 N.am  102  ALA102     -0.1977
     81  CA       -29.2530   50.2980   11.7820 C.3   102  ALA102      0.1597
     82  C        -27.9530   50.9440   11.1820 C.2   102  ALA102      0.2287
     83  O        -27.3910   51.9490   11.6740 O.2   102  ALA102     -0.2864
     84  CB       -28.9050   49.0600   12.5980 C.3   102  ALA102      0.0319
     85  N        -27.7150   52.9010    8.7680 N.3   104  VAL104     -0.1231
     86  CA       -27.8120   54.2510    8.2440 C.3   104  VAL104      0.1678
     87  C        -27.2010   55.3100    9.2070 C.2   104  VAL104      0.2434
     88  O        -26.3750   56.1870    8.8300 O.2   104  VAL104     -0.2733
     89  CB       -29.2200   54.5980    7.7880 C.3   104  VAL104      0.0265
     90  CG1      -29.2540   55.9870    7.2370 C.3   104  VAL104      0.0020
     91  CG2      -29.6260   53.7430    6.6500 C.3   104  VAL104      0.0020
     92  N        -27.6130   55.2440   10.4580 N.am  105  PRO105     -0.2718
     93  CA       -27.0290   55.7480   11.6800 C.3   105  PRO105      0.1535
     94  C        -25.5400   55.3980   11.8050 C.2   105  PRO105      0.2598
     95  O        -24.7050   56.3500   11.6810 O.2   105  PRO105     -0.2715
     96  CB       -27.7530   54.9570   12.7450 C.3   105  PRO105      0.0310
     97  CG       -28.9660   54.5860   12.1890 C.3   105  PRO105      0.0237
     98  CD       -28.8910   54.6010   10.6870 C.3   105  PRO105      0.0939
     99  N        -25.2140   54.0950   12.0580 N.am  106  LEU106     -0.1978
    100  CA       -23.8200   53.7010   12.3240 C.3   106  LEU106      0.1596
    101  C        -22.8980   54.2940   11.2260 C.2   106  LEU106      0.2287
    102  O        -22.0650   55.2110   11.4690 O.2   106  LEU106     -0.2864
    103  CB       -23.7080   52.1900   12.4580 C.3   106  LEU106      0.0297
    104  CG       -24.8430   51.7920   13.4390 C.3   106  LEU106      0.0022
    105  CD1      -25.0220   50.2660   13.7650 C.3   106  LEU106      0.0001
    106  CD2      -24.8330   52.5950   14.7800 C.3   106  LEU106      0.0001
    107  N        -23.4920   56.5420    9.3660 N.3   108  LEU108     -0.1231
    108  CA       -23.4990   57.9510    9.1730 C.3   108  LEU108      0.1693
    109  C        -22.5210   58.6420   10.1340 C.2   108  LEU108      0.2591
    110  O        -21.7950   59.5440    9.7540 O.2   108  LEU108     -0.2718
    111  CB       -24.9130   58.4510    9.2270 C.3   108  LEU108      0.0284
    112  CG       -24.9270   59.7060    8.3900 C.3   108  LEU108      0.0019
    113  CD1      -24.7240   59.3510    6.9770 C.3   108  LEU108      0.0001
    114  CD2      -26.3440   60.1420    8.5810 C.3   108  LEU108      0.0001
    115  N        -22.5260   58.1950   11.3770 N.am  109  ILE109     -0.1980
    116  CA       -21.3820   58.3580   12.2480 C.3   109  ILE109      0.1595
    117  C        -20.0130   58.1140   11.5280 C.2   109  ILE109      0.2287
    118  O        -19.0930   58.9500   11.6110 O.2   109  ILE109     -0.2864
    119  CB       -21.3970   57.2660   13.3520 C.3   109  ILE109      0.0276
    120  CG1      -22.5050   57.4600   14.4160 C.3   109  ILE109      0.0022
    121  CG2      -20.0540   57.2090   13.9170 C.3   109  ILE109      0.0022
    122  CD1      -22.0620   58.0780   15.7350 C.3   109  ILE109      0.0001
    123  N        -18.6800   58.2970    8.7560 N.3   111  VAL111     -0.1245
    124  CA       -18.1890   59.3130    7.8650 C.3   111  VAL111      0.1561
    125  C        -17.1040   60.2510    8.3180 C.2   111  VAL111      0.2260
    126  O        -16.1450   60.3670    7.6570 O.2   111  VAL111     -0.2867
    127  CB       -19.3480   60.1510    7.3430 C.3   111  VAL111      0.0252
    128  CG1      -18.8400   61.4920    6.6300 C.3   111  VAL111      0.0019
    129  CG2      -20.2820   59.2290    6.5210 C.3   111  VAL111      0.0019
    130  N        -13.7870   59.9510    5.6020 N.3   115  GLU115     -0.1245
    131  CA       -13.5540   61.2980    4.9710 C.3   115  GLU115      0.1567
    132  C        -12.5250   62.3330    5.5940 C.2   115  GLU115      0.2260
    133  O        -12.3430   63.4740    5.0400 O.2   115  GLU115     -0.2867
    134  CB       -14.9550   61.9960    4.6910 C.3   115  GLU115      0.0388
    135  CG       -15.5960   61.9180    3.2120 C.3   115  GLU115      0.1160
    136  CD       -15.3960   63.3880    2.4200 C.2   115  GLU115      0.3649
    137  OE1      -14.2240   64.0070    2.2120 O.co2 115  GLU115     -0.2457
    138  OE2      -16.4810   63.9410    2.0170 O.co2 115  GLU115     -0.2457
    139  N        -15.7930   61.5280   -2.4730 N.3   129  ALA129     -0.1301
    140  CA       -17.0660   61.8410   -1.7750 C.3   129  ALA129      0.1247
    141  C        -18.2300   62.2150   -2.6980 C.3   129  ALA129      0.2009
    142  O        -19.2460   61.4360   -2.8840 O.3   129  ALA129     -0.2188
    143  CB       -16.8560   63.0110   -0.8620 C.3   129  ALA129      0.0233
    144  N        -19.7140   59.0790   -3.9580 N.3   132  ILE132     -0.1231
    145  CA       -20.4870   58.1010   -3.1700 C.3   132  ILE132      0.1692
    146  C        -21.6160   58.8450   -2.4540 C.2   132  ILE132      0.2592
    147  O        -22.6270   58.2440   -2.0440 O.2   132  ILE132     -0.2718
    148  CB       -19.6780   57.1940   -2.1570 C.3   132  ILE132      0.0266
    149  CG1      -18.2700   56.9290   -2.6480 C.3   132  ILE132      0.0019
    150  CG2      -20.3780   55.8020   -1.8810 C.3   132  ILE132      0.0020
    151  CD1      -17.5090   58.1730   -2.5370 C.3   132  ILE132      0.0001
    152  N        -21.4970   60.1690   -2.3460 N.am  133  PHE133     -0.1976
    153  CA       -22.6660   60.9330   -1.8510 C.3   133  PHE133      0.1639
    154  C        -23.8290   61.0580   -2.8340 C.2   133  PHE133      0.2290
    155  O        -24.8080   60.2860   -2.6960 O.2   133  PHE133     -0.2864
    156  CB       -22.2540   62.2660   -1.4390 C.3   133  PHE133      0.0560
    157  CG       -23.3500   63.0900   -1.0260 C.ar  133  PHE133     -0.0200
    158  CD1      -23.6790   64.2490   -1.7790 C.ar  133  PHE133     -0.0042
    159  CD2      -24.0520   62.7650    0.1430 C.ar  133  PHE133     -0.0042
    160  CE1      -24.7030   65.1240   -1.3490 C.ar  133  PHE133     -0.0003
    161  CE2      -25.1210   63.5940    0.5640 C.ar  133  PHE133     -0.0003
    162  CZ       -25.4460   64.7950   -0.1880 C.ar  133  PHE133     -0.0000
    163  N        -24.1830   59.4210   -5.5180 N.3   135  PHE135     -0.1227
    164  CA       -24.6710   58.0440   -5.5330 C.3   135  PHE135      0.1736
    165  C        -25.7590   57.8090   -4.5510 C.2   135  PHE135      0.2596
    166  O        -26.8680   57.5550   -4.9670 O.2   135  PHE135     -0.2718
    167  CB       -23.6600   56.9650   -5.2520 C.3   135  PHE135      0.0547
    168  CG       -24.2370   55.5440   -5.5000 C.ar  135  PHE135     -0.0202
    169  CD1      -24.8920   55.2400   -6.7300 C.ar  135  PHE135     -0.0042
    170  CD2      -24.1020   54.4960   -4.5170 C.ar  135  PHE135     -0.0042
    171  CE1      -25.4570   53.8690   -6.9410 C.ar  135  PHE135     -0.0003
    172  CE2      -24.6580   53.1240   -4.7270 C.ar  135  PHE135     -0.0003
    173  CZ       -25.3510   52.7950   -5.9170 C.ar  135  PHE135     -0.0000
    174  N        -25.4370   57.8330   -3.2600 N.am  136  GLY136     -0.1942
    175  CA       -26.3980   57.4040   -2.1810 C.3   136  GLY136      0.2014
    176  C        -27.6710   58.2740   -1.9980 C.2   136  GLY136      0.2639
    177  O        -28.7900   57.7540   -1.9980 O.2   136  GLY136     -0.2714
    178  N        -27.5050   59.5860   -1.8300 N.am  137  THR137     -0.1950
    179  CA       -28.5630   60.5340   -2.0350 C.3   137  THR137      0.1897
    180  C        -29.4810   60.1140   -3.1770 C.2   137  THR137      0.2313
    181  O        -30.6740   60.3650   -3.1670 O.2   137  THR137     -0.2863
    182  CB       -27.9680   61.8690   -2.4880 C.3   137  THR137      0.1794
    183  OG1      -26.9430   62.2630   -1.5830 O.3   137  THR137     -0.2208
    184  CG2      -29.0240   63.0170   -2.5650 C.3   137  THR137      0.0378
    185  N        -29.8550   56.7070   -4.6330 N.3   139  VAL139     -0.1231
    186  CA       -30.4830   55.4930   -4.3170 C.3   139  VAL139      0.1692
    187  C        -31.5960   55.7340   -3.3340 C.2   139  VAL139      0.2589
    188  O        -32.6050   54.9770   -3.3020 O.2   139  VAL139     -0.2718
    189  CB       -29.4660   54.6610   -3.6490 C.3   139  VAL139      0.0266
    190  CG1      -30.1160   53.3380   -3.1020 C.3   139  VAL139      0.0020
    191  CG2      -28.3600   54.4980   -4.6550 C.3   139  VAL139      0.0020
    192  N        -31.3980   56.7820   -2.5170 N.am  140  THR140     -0.2006
    193  CA       -32.2720   57.0190   -1.3230 C.3   140  THR140      0.1584
    194  C        -33.6420   57.4490   -1.8250 C.3   140  THR140      0.2062
    195  O        -34.6460   56.6430   -1.7600 O.3   140  THR140     -0.2184
    196  CB       -31.5760   57.8990   -0.1300 C.3   140  THR140      0.1745
    197  OG1      -31.1610   57.0420    0.9880 O.3   140  THR140     -0.2212
    198  CG2      -32.4150   59.1490    0.3620 C.3   140  THR140      0.0374
    199  N        -35.1440   54.6670   -3.6780 N.3   143  LEU143     -0.1301
    200  CA       -35.7770   53.6360   -2.8800 C.3   143  LEU143      0.1247
    201  C        -37.0580   54.2400   -2.2810 C.3   143  LEU143      0.2009
    202  O        -37.9910   53.4740   -1.7520 O.3   143  LEU143     -0.2188
    203  CB       -34.8940   53.2710   -1.7450 C.3   143  LEU143      0.0217
    204  CG       -33.8970   52.1870   -1.8720 C.3   143  LEU143      0.0015
    205  CD1      -32.7920   52.7180   -0.9480 C.3   143  LEU143      0.0000
    206  CD2      -34.4770   50.7670   -1.4900 C.3   143  LEU143      0.0000
@<TRIPOS>BOND
     1   171   169   ar
     2   171   173   ar
     3   169   168   ar
     4   173   172   ar
     5   164   163    1
     6   164   167    1
     7   164   165    1
     8   168   167    1
     9   168   170   ar
    10   166   165    2
    11   172   170   ar
    12   191   189    1
    13   185   186    1
    14   165   174   am
    15   186   189    1
    16   186   187    1
    17   144   145    1
    18   199   200    1
    19   189   190    1
    20   187   188    2
    21   187   192   am
    22   174   175    1
    23   180   181    2
    24   180   179    1
    25   145   146    1
    26   145   148    1
    27   142   141    1
    28   200   201    1
    29   200   203    1
    30   154   155    2
    31   154   153    1
    32   141   140    1
    33   149   151    1
    34   149   148    1
    35   184   182    1
    36   192   193    1
    37   182   179    1
    38   182   183    1
    39   139   140    1
    40   146   152   am
    41   146   147    2
    42   152   153    1
    43   201   202    1
    44   175   176    1
    45   148   150    1
    46   179   178    1
    47   177   176    2
    48   176   178   am
    49   204   203    1
    50   204   206    1
    51   204   205    1
    52   153   156    1
    53   194   195    1
    54   194   193    1
    55   158   160   ar
    56   158   157   ar
    57   140   143    1
    58   156   157    1
    59   160   162   ar
    60   193   196    1
    61   157   159   ar
    62   162   161   ar
    63   196   198    1
    64   196   197    1
    65   159   161   ar
    66    49    50    1
    67    36    39    1
    68    36    35    1
    69    36    37    1
    70    50    51    1
    71    50    53    1
    72   138   136   ar
    73    54    53    1
    74    54    56    1
    75    40    39    1
    76    40    41    1
    77   137   136   ar
    78    52    51    2
    79    38    37    2
    80   136   135    1
    81    35    41    1
    82    37    42   am
    83    53    55    1
    84   135   134    1
    85     7     9   ar
    86     7     6   ar
    87     9    10   ar
    88     4     3    2
    89     5     6    1
    90     5     2    1
    91     6     8   ar
    92    71    69    1
    93    42    43    1
    94    45    44    2
    95     2     3    1
    96     2     1    1
    97     3    15   am
    98    10     8   ar
    99    10    12   ar
   100    44    43    1
   101   134   131    1
   102     8    11   ar
   103    43    46    1
   104    70    69    1
   105   131   132    1
   106   131   130    1
   107   133   132    2
   108    12    14   ar
   109    69    68    1
   110    15    16    1
   111    29    30    2
   112    29    28    1
   113    11    13   ar
   114    16    17    1
   115    16    19    1
   116    14    13   ar
   117    68    65    1
   118    18    17    2
   119    17    27   am
   120    46    48    1
   121    46    47    1
   122   129   127    1
   123   128   127    1
   124    91    89    1
   125    27    28    1
   126    28    31    1
   127    19    20    1
   128    67    66    2
   129   113   112    1
   130    65    66    1
   131    65    64    1
   132    90    89    1
   133   127   124    1
   134    66    72   am
   135   126   125    2
   136    31    32    1
   137    89    86    1
   138   124   125    1
   139   124   123    1
   140    20    22   ar
   141    20    21   ar
   142    72    73    1
   143    86    85    1
   144    86    87    1
   145   112   114    1
   146   112   111    1
   147    22    24   ar
   148    73    76    1
   149    73    74    1
   150    88    87    2
   151    34    32    1
   152    21    23   ar
   153    32    33    1
   154    57    58    1
   155   108   111    1
   156   108   107    1
   157   108   109    1
   158    87    92   am
   159    75    74    2
   160    78    77    1
   161    78    79    1
   162    24    25   ar
   163    76    77    1
   164    74    80   am
   165   110   109    2
   166    23    25   ar
   167   109   115   am
   168    25    26    1
   169    58    59    1
   170    58    61    1
   171    92    98    1
   172    92    93    1
   173    98    97    1
   174    59    60    2
   175    80    81    1
   176    63    61    1
   177    82    83    2
   178    82    81    1
   179   101   102    2
   180   101   100    1
   181   115   116    1
   182    61    62    1
   183   117   118    2
   184   117   116    1
   185    93    94    1
   186    93    96    1
   187    95    94    2
   188    81    84    1
   189    94    99   am
   190    99   100    1
   191    97    96    1
   192   116   119    1
   193   100   103    1
   194   103   104    1
   195   119   121    1
   196   119   120    1
   197   104   105    1
   198   104   106    1
   199   120   122    1
