@<TRIPOS>MOLECULE
tmp/2e76B03.pdb
 192 179 0 0 0
SMALL
GASTEIGER

@<TRIPOS>ATOM
      1  N        -36.4520   49.1470    1.5780 N.3    87  ILE87      -0.1245
      2  CA       -35.4730   48.1350    1.9950 C.3    87  ILE87       0.1561
      3  C        -36.1160   47.0120    2.8020 C.2    87  ILE87       0.2260
      4  O        -36.3820   45.9650    2.2810 O.2    87  ILE87      -0.2867
      5  CB       -34.4750   48.8100    2.8920 C.3    87  ILE87       0.0252
      6  CG1      -33.6880   49.8160    2.1030 C.3    87  ILE87       0.0019
      7  CG2      -33.5860   47.8090    3.6770 C.3    87  ILE87       0.0019
      8  CD1      -32.7130   50.5070    2.9630 C.3    87  ILE87       0.0001
      9  N        -37.9540   44.6820    0.4190 N.3    90  SER90      -0.1202
     10  CA       -37.2750   43.9640   -0.6980 C.3    90  SER90       0.2020
     11  C        -36.0210   43.2450   -0.1360 C.2    90  SER90       0.2618
     12  O        -34.8560   43.5900   -0.5190 O.2    90  SER90      -0.2717
     13  CB       -36.9100   44.9130   -1.8720 C.3    90  SER90       0.2103
     14  OG       -36.7500   46.2820   -1.4970 O.3    90  SER90      -0.2182
     15  N        -36.2450   42.3260    0.8270 N.am   91  VAL91      -0.1979
     16  CA       -35.1200   41.7050    1.5600 C.3    91  VAL91       0.1595
     17  C        -35.4660   40.5260    2.3970 C.2    91  VAL91       0.2287
     18  O        -35.3050   40.5670    3.5790 O.2    91  VAL91      -0.2864
     19  CB       -34.4430   42.6410    2.4820 C.3    91  VAL91       0.0276
     20  CG1      -33.7020   41.8650    3.4610 C.3    91  VAL91       0.0022
     21  CG2      -33.4490   43.4190    1.6930 C.3    91  VAL91       0.0022
     22  N        -31.9280   40.5970    8.3690 N.3    96  LEU96      -0.1245
     23  CA       -30.9140   41.3860    7.6150 C.3    96  LEU96       0.1561
     24  C        -31.2330   42.8820    7.5800 C.2    96  LEU96       0.2260
     25  O        -30.4810   43.7330    8.1490 O.2    96  LEU96      -0.2867
     26  CB       -30.7000   40.8450    6.1890 C.3    96  LEU96       0.0270
     27  CG       -29.4720   41.1350    5.2860 C.3    96  LEU96       0.0019
     28  CD1      -30.0230   41.9090    4.1370 C.3    96  LEU96       0.0001
     29  CD2      -28.2790   41.9120    5.8500 C.3    96  LEU96       0.0001
     30  N        -29.5190   46.3570    8.2100 N.3   100  LEU100     -0.1245
     31  CA       -29.4670   47.2940    7.1490 C.3   100  LEU100      0.1561
     32  C        -30.0460   48.6600    7.4580 C.2   100  LEU100      0.2260
     33  O        -29.5510   49.6720    6.9340 O.2   100  LEU100     -0.2867
     34  CB       -30.2510   46.7220    6.0490 C.3   100  LEU100      0.0270
     35  CG       -29.3890   45.8090    5.2480 C.3   100  LEU100      0.0019
     36  CD1      -30.2260   44.4770    4.8810 C.3   100  LEU100      0.0001
     37  CD2      -28.9260   46.7720    4.0660 C.3   100  LEU100      0.0001
     38  N        -27.4320   50.3340   10.1390 N.3   103  SER103     -0.1202
     39  CA       -26.3170   50.9210    9.4270 C.3   103  SER103      0.2020
     40  C        -26.4940   52.4130    9.0170 C.2   103  SER103      0.2618
     41  O        -25.4980   53.1190    8.8980 O.2   103  SER103     -0.2717
     42  CB       -26.1540   50.0910    8.1840 C.3   103  SER103      0.2103
     43  OG       -27.2660   49.2290    8.1720 O.3   103  SER103     -0.2182
     44  N        -27.7150   52.9010    8.7680 N.am  104  VAL104     -0.1979
     45  CA       -27.8120   54.2510    8.2440 C.3   104  VAL104      0.1595
     46  C        -27.2010   55.3100    9.2070 C.2   104  VAL104      0.2287
     47  O        -26.3750   56.1870    8.8300 O.2   104  VAL104     -0.2864
     48  CB       -29.2200   54.5980    7.7880 C.3   104  VAL104      0.0276
     49  CG1      -29.2540   55.9870    7.2370 C.3   104  VAL104      0.0022
     50  CG2      -29.6260   53.7430    6.6500 C.3   104  VAL104      0.0022
     51  N        -23.0880   53.8170   10.0010 N.3   107  GLY107     -0.1210
     52  CA       -22.4490   54.4390    8.8580 C.3   107  GLY107      0.1956
     53  C        -22.4310   55.9540    8.9020 C.2   107  GLY107      0.2611
     54  O        -21.4790   56.6440    8.5010 O.2   107  GLY107     -0.2717
     55  N        -23.4920   56.5420    9.3660 N.am  108  LEU108     -0.1979
     56  CA       -23.4990   57.9510    9.1730 C.3   108  LEU108      0.1596
     57  C        -22.5210   58.6420   10.1340 C.2   108  LEU108      0.2287
     58  O        -21.7950   59.5440    9.7540 O.2   108  LEU108     -0.2864
     59  CB       -24.9130   58.4510    9.2270 C.3   108  LEU108      0.0297
     60  CG       -24.9270   59.7060    8.3900 C.3   108  LEU108      0.0022
     61  CD1      -24.7240   59.3510    6.9770 C.3   108  LEU108      0.0001
     62  CD2      -26.3440   60.1420    8.5810 C.3   108  LEU108      0.0001
     63  N        -19.8340   56.9440   10.8870 N.3   110  LEU110     -0.1231
     64  CA       -18.4590   56.6000   10.4060 C.3   110  LEU110      0.1693
     65  C        -17.8660   57.6780    9.5640 C.2   110  LEU110      0.2591
     66  O        -16.7090   57.9750    9.6680 O.2   110  LEU110     -0.2718
     67  CB       -18.3260   55.2440    9.7150 C.3   110  LEU110      0.0284
     68  CG       -18.5170   54.5080   11.0290 C.3   110  LEU110      0.0019
     69  CD1      -18.6970   52.9210   10.9810 C.3   110  LEU110      0.0001
     70  CD2      -17.3950   55.0350   12.0230 C.3   110  LEU110      0.0001
     71  N        -18.6800   58.2970    8.7560 N.am  111  VAL111     -0.1980
     72  CA       -18.1890   59.3130    7.8650 C.3   111  VAL111      0.1595
     73  C        -17.1040   60.2510    8.3180 C.2   111  VAL111      0.2287
     74  O        -16.1450   60.3670    7.6570 O.2   111  VAL111     -0.2864
     75  CB       -19.3480   60.1510    7.3430 C.3   111  VAL111      0.0276
     76  CG1      -18.8400   61.4920    6.6300 C.3   111  VAL111      0.0022
     77  CG2      -20.2820   59.2290    6.5210 C.3   111  VAL111      0.0022
     78  N        -13.3420   57.9340    8.4290 N.3   114  ILE114     -0.1231
     79  CA       -13.1700   57.8980    6.9530 C.3   114  ILE114      0.1692
     80  C        -12.8490   59.2540    6.1750 C.2   114  ILE114      0.2591
     81  O        -11.7640   59.6360    6.0720 O.2   114  ILE114     -0.2718
     82  CB       -14.3620   57.3170    6.3150 C.3   114  ILE114      0.0266
     83  CG1      -14.5770   55.8820    6.7950 C.3   114  ILE114      0.0019
     84  CG2      -14.1400   57.3930    4.9110 C.3   114  ILE114      0.0020
     85  CD1      -16.0110   55.3110    6.3850 C.3   114  ILE114      0.0001
     86  N        -13.7870   59.9510    5.6020 N.am  115  GLU115     -0.1979
     87  CA       -13.5540   61.2980    4.9710 C.3   115  GLU115      0.1602
     88  C        -12.5250   62.3330    5.5940 C.2   115  GLU115      0.2287
     89  O        -12.3430   63.4740    5.0400 O.2   115  GLU115     -0.2864
     90  CB       -14.9550   61.9960    4.6910 C.3   115  GLU115      0.0415
     91  CG       -15.5960   61.9180    3.2120 C.3   115  GLU115      0.1163
     92  CD       -15.3960   63.3880    2.4200 C.2   115  GLU115      0.3649
     93  OE1      -14.2240   64.0070    2.2120 O.co2 115  GLU115     -0.2457
     94  OE2      -16.4810   63.9410    2.0170 O.co2 115  GLU115     -0.2457
     95  N         -9.1920   61.3930    6.0540 N.3   117  VAL117     -0.1231
     96  CA        -7.9890   61.1630    5.1630 C.3   117  VAL117      0.1692
     97  C         -7.5380   62.4840    4.5520 C.2   117  VAL117      0.2592
     98  O         -6.3660   62.8850    4.6560 O.2   117  VAL117     -0.2718
     99  CB        -8.0120   59.9420    4.0350 C.3   117  VAL117      0.0266
    100  CG1       -8.6250   58.4610    4.5170 C.3   117  VAL117      0.0020
    101  CG2       -8.4850   60.4420    2.6020 C.3   117  VAL117      0.0020
    102  N         -8.4060   63.2570    3.9660 N.am  118  ASN118     -0.1974
    103  CA        -7.8590   64.5780    3.8500 C.3   118  ASN118      0.1688
    104  C         -8.7210   65.5940    4.4510 C.2   118  ASN118      0.2292
    105  O         -9.6560   65.3410    5.2210 O.2   118  ASN118     -0.2864
    106  CB        -7.7280   64.9670    2.4360 C.3   118  ASN118      0.1181
    107  CG        -9.0570   64.9890    1.7710 C.2   118  ASN118      0.2629
    108  OD1       -9.4570   63.9270    1.2700 O.2   118  ASN118     -0.2716
    109  ND2       -9.8030   66.1760    1.8090 N.am  118  ASN118     -0.0877
    110  N        -10.2040   68.5890    2.7240 N.3   120  PHE120     -0.1241
    111  CA       -10.8950   69.7620    2.1110 C.3   120  PHE120      0.1605
    112  C        -12.3130   69.6420    2.2720 C.2   120  PHE120      0.2264
    113  O        -12.9020   68.5330    2.3690 O.2   120  PHE120     -0.2867
    114  CB       -10.5940   70.1880    0.6540 C.3   120  PHE120      0.0534
    115  CG        -9.4250   69.4490    0.0790 C.ar  120  PHE120     -0.0203
    116  CD1       -9.4450   68.0270    0.0380 C.ar  120  PHE120     -0.0042
    117  CD2       -8.2740   70.1380   -0.3380 C.ar  120  PHE120     -0.0042
    118  CE1       -8.3500   67.3130   -0.4590 C.ar  120  PHE120     -0.0003
    119  CE2       -7.1830   69.4590   -0.7890 C.ar  120  PHE120     -0.0003
    120  CZ        -7.2150   68.0330   -0.8590 C.ar  120  PHE120     -0.0000
    121  N        -12.9290   70.2590   -5.2910 N.3   125  ARG125     -0.1231
    122  CA       -11.7790   69.5290   -4.6270 C.3   125  ARG125      0.1694
    123  C        -11.9300   68.1330   -3.9460 C.2   125  ARG125      0.2592
    124  O        -10.9690   67.8140   -3.3120 O.2   125  ARG125     -0.2718
    125  CB       -10.9340   70.4180   -3.6540 C.3   125  ARG125      0.0321
    126  CG       -10.9220   71.8680   -4.1080 C.3   125  ARG125      0.0489
    127  CD        -9.8080   72.6930   -3.5130 C.3   125  ARG125      0.2205
    128  NE       -10.4740   73.9130   -3.1090 N.pl3 125  ARG125     -0.0865
    129  CZ       -10.5290   74.9910   -3.8750 C.cat 125  ARG125      0.5346
    130  NH1       -9.8960   74.9360   -5.0450 N.pl3 125  ARG125      0.1354
    131  NH2      -11.1740   76.1180   -3.4850 N.pl3 125  ARG125      0.1354
    132  N        -13.0060   67.3250   -4.0440 N.am  126  ARG126     -0.1966
    133  CA       -13.0130   65.9920   -3.3440 C.3   126  ARG126      0.1714
    134  C        -13.9610   64.9060   -3.9460 C.2   126  ARG126      0.2458
    135  O        -14.9130   64.3150   -3.3550 O.2   126  ARG126     -0.2730
    136  CB       -13.1160   66.1350   -1.8090 C.3   126  ARG126      0.0347
    137  CG       -14.1700   67.1720   -1.1910 C.3   126  ARG126      0.0492
    138  CD       -14.4270   66.7330    0.2660 C.3   126  ARG126      0.2205
    139  NE       -15.4150   67.5640    0.9400 N.pl3 126  ARG126     -0.0865
    140  CZ       -16.5690   67.1690    1.5130 C.cat 126  ARG126      0.5346
    141  NH1      -17.0160   65.8540    1.5430 N.pl3 126  ARG126      0.1354
    142  NH2      -17.2860   68.1500    2.0980 N.pl3 126  ARG126      0.1354
    143  N        -13.7060   64.6690   -5.2050 N.am  127  PRO127     -0.2716
    144  CA       -14.3120   63.7270   -6.1030 C.3   127  PRO127      0.1536
    145  C        -14.8140   62.5070   -5.5070 C.2   127  PRO127      0.2598
    146  O        -15.9250   62.1060   -5.8320 O.2   127  PRO127     -0.2715
    147  CB       -13.1710   63.4090   -6.9710 C.3   127  PRO127      0.0310
    148  CG       -12.8500   64.9190   -7.3250 C.3   127  PRO127      0.0237
    149  CD       -12.7200   65.4990   -5.9190 C.3   127  PRO127      0.0939
    150  N        -14.0300   61.8700   -4.6790 N.am  128  VAL128     -0.1964
    151  CA       -14.5260   60.5890   -4.3080 C.3   128  VAL128      0.1727
    152  C        -15.7380   60.5800   -3.4040 C.2   128  VAL128      0.2612
    153  O        -16.6740   59.7850   -3.6330 O.2   128  VAL128     -0.2715
    154  CB       -13.4340   59.6090   -4.0560 C.3   128  VAL128      0.0290
    155  CG1      -13.9720   58.1540   -3.7090 C.3   128  VAL128      0.0023
    156  CG2      -12.6370   59.6140   -5.3780 C.3   128  VAL128      0.0023
    157  N        -15.7930   61.5280   -2.4730 N.am  129  ALA129     -0.2031
    158  CA       -17.0660   61.8410   -1.7750 C.3   129  ALA129      0.1283
    159  C        -18.2300   62.2150   -2.6980 C.3   129  ALA129      0.2036
    160  O        -19.2460   61.4360   -2.8840 O.3   129  ALA129     -0.2185
    161  CB       -16.8560   63.0110   -0.8620 C.3   129  ALA129      0.0262
    162  N        -19.7140   59.0790   -3.9580 N.3   132  ILE132     -0.1245
    163  CA       -20.4870   58.1010   -3.1700 C.3   132  ILE132      0.1561
    164  C        -21.6160   58.8450   -2.4540 C.2   132  ILE132      0.2260
    165  O        -22.6270   58.2440   -2.0440 O.2   132  ILE132     -0.2867
    166  CB       -19.6780   57.1940   -2.1570 C.3   132  ILE132      0.0252
    167  CG1      -18.2700   56.9290   -2.6480 C.3   132  ILE132      0.0019
    168  CG2      -20.3780   55.8020   -1.8810 C.3   132  ILE132      0.0019
    169  CD1      -17.5090   58.1730   -2.5370 C.3   132  ILE132      0.0001
    170  N        -29.8550   56.7070   -4.6330 N.3   139  VAL139     -0.1245
    171  CA       -30.4830   55.4930   -4.3170 C.3   139  VAL139      0.1561
    172  C        -31.5960   55.7340   -3.3340 C.2   139  VAL139      0.2260
    173  O        -32.6050   54.9770   -3.3020 O.2   139  VAL139     -0.2867
    174  CB       -29.4660   54.6610   -3.6490 C.3   139  VAL139      0.0252
    175  CG1      -30.1160   53.3380   -3.1020 C.3   139  VAL139      0.0019
    176  CG2      -28.3600   54.4980   -4.6550 C.3   139  VAL139      0.0019
    177  N        -35.1440   54.6670   -3.6780 N.3   143  LEU143     -0.1301
    178  CA       -35.7770   53.6360   -2.8800 C.3   143  LEU143      0.1247
    179  C        -37.0580   54.2400   -2.2810 C.3   143  LEU143      0.2009
    180  O        -37.9910   53.4740   -1.7520 O.3   143  LEU143     -0.2188
    181  CB       -34.8940   53.2710   -1.7450 C.3   143  LEU143      0.0217
    182  CG       -33.8970   52.1870   -1.8720 C.3   143  LEU143      0.0015
    183  CD1      -32.7920   52.7180   -0.9480 C.3   143  LEU143      0.0000
    184  CD2      -34.4770   50.7670   -1.4900 C.3   143  LEU143      0.0000
    185  N        -39.0830   48.1980   -7.4490 N.3   155  LEU155     -0.1245
    186  CA       -37.5990   48.4870   -7.5440 C.3   155  LEU155      0.1561
    187  C        -37.4530   48.9020   -8.9400 C.2   155  LEU155      0.2260
    188  O        -36.9810   49.9700   -9.2260 O.2   155  LEU155     -0.2867
    189  CB       -36.6950   47.2680   -7.3100 C.3   155  LEU155      0.0270
    190  CG       -37.1790   46.3580   -6.1430 C.3   155  LEU155      0.0019
    191  CD1      -37.7980   44.9110   -6.5060 C.3   155  LEU155      0.0001
    192  CD2      -36.1660   46.2670   -4.9990 C.3   155  LEU155      0.0001
@<TRIPOS>BOND
     1   188   187    2
     2   187   186    1
     3   186   185    1
     4   186   189    1
     5   148   147    1
     6   148   149    1
     7   189   190    1
     8   147   144    1
     9   191   190    1
    10   190   192    1
    11   144   145    1
    12   144   143    1
    13   149   143    1
    14   146   145    2
    15   145   150   am
    16   156   154    1
    17   121   122    1
    18   143   134   am
    19   130   129    1
    20   150   151    1
    21   176   174    1
    22   170   171    1
    23   122   123    1
    24   122   125    1
    25   171   174    1
    26   171   172    1
    27   151   154    1
    28   151   152    1
    29   126   125    1
    30   126   127    1
    31   154   155    1
    32   132   123   am
    33   132   133    1
    34   162   163    1
    35   134   135    2
    36   134   133    1
    37   123   124    2
    38   129   131    1
    39   129   128    2
    40   177   178    1
    41   174   175    1
    42   153   152    2
    43   127   128    1
    44   152   157   am
    45   133   136    1
    46   172   173    2
    47   163   164    1
    48   163   166    1
    49   160   159    1
    50   178   179    1
    51   178   181    1
    52   159   158    1
    53   167   169    1
    54   167   166    1
    55   157   158    1
    56   164   165    2
    57   179   180    1
    58   166   168    1
    59    13    14    1
    60    13    10    1
    61   182   181    1
    62   182   184    1
    63   182   183    1
    64   136   137    1
    65   158   161    1
    66   137   138    1
    67   120   119   ar
    68   120   118   ar
    69   119   117   ar
    70    10    11    1
    71    10     9    1
    72    12    11    2
    73   118   116   ar
    74   117   115   ar
    75    11    15   am
    76   116   115   ar
    77   115   114    1
    78   138   139    1
    79   114   111    1
    80    15    16    1
    81   139   140    2
    82   108   107    2
    83   140   141    1
    84   140   142    1
    85    16    17    1
    86    16    19    1
    87     1     2    1
    88    21    19    1
    89   107   109   am
    90   107   106    1
    91     2     3    1
    92     2     5    1
    93    94    92   ar
    94     6     5    1
    95     6     8    1
    96   111   112    1
    97   111   110    1
    98    93    92   ar
    99   112   113    2
   100     4     3    2
   101    17    18    2
   102    92    91    1
   103   106   103    1
   104    19    20    1
   105   101    99    1
   106     5     7    1
   107    91    90    1
   108   103   102    1
   109   103   104    1
   110   102    97   am
   111    99   100    1
   112    99    96    1
   113    37    35    1
   114    28    27    1
   115   104   105    2
   116    97    98    2
   117    97    96    1
   118    90    87    1
   119    36    35    1
   120    84    82    1
   121    87    88    1
   122    87    86    1
   123    89    88    2
   124    96    95    1
   125    35    34    1
   126    27    29    1
   127    27    26    1
   128    86    80   am
   129    34    31    1
   130    81    80    2
   131    80    79    1
   132    26    23    1
   133    82    83    1
   134    82    79    1
   135    85    83    1
   136    77    75    1
   137    76    75    1
   138    50    48    1
   139    33    32    2
   140    79    78    1
   141    61    60    1
   142    31    32    1
   143    31    30    1
   144    49    48    1
   145    75    72    1
   146    24    23    1
   147    24    25    2
   148    23    22    1
   149    74    73    2
   150    48    45    1
   151    72    73    1
   152    72    71    1
   153    43    42    1
   154    42    39    1
   155    45    44    1
   156    45    46    1
   157    60    62    1
   158    60    59    1
   159    54    53    2
   160    71    65   am
   161    44    40   am
   162    47    46    2
   163    52    53    1
   164    52    51    1
   165    41    40    2
   166    53    55   am
   167    40    39    1
   168    56    59    1
   169    56    55    1
   170    56    57    1
   171    39    38    1
   172    65    66    2
   173    65    64    1
   174    67    64    1
   175    67    68    1
   176    58    57    2
   177    64    63    1
   178    69    68    1
   179    68    70    1
