@<TRIPOS>MOLECULE
tmp/2e76B04.pdb
 81 77 0 0 0
SMALL
GASTEIGER

@<TRIPOS>ATOM
      1  N        -51.0020   50.7260    4.0540 N.3    75  ILE75      -0.1231
      2  CA       -50.4590   51.3070    5.2400 C.3    75  ILE75       0.1692
      3  C        -49.0240   51.7040    4.9880 C.2    75  ILE75       0.2592
      4  O        -48.1980   50.8750    4.8770 O.2    75  ILE75      -0.2718
      5  CB       -50.5060   50.3600    6.3830 C.3    75  ILE75       0.0266
      6  CG1      -49.7210   50.9760    7.5050 C.3    75  ILE75       0.0019
      7  CG2      -49.8470   49.0780    6.0350 C.3    75  ILE75       0.0020
      8  CD1      -50.3650   50.7200    8.8060 C.3    75  ILE75       0.0001
      9  N        -48.7050   52.9740    4.8900 N.am   76  LEU76      -0.1966
     10  CA       -47.2950   53.3300    4.8830 C.3    76  LEU76       0.1713
     11  C        -46.8290   53.9800    6.1940 C.2    76  LEU76       0.2458
     12  O        -47.6320   54.3490    7.0600 O.2    76  LEU76      -0.2730
     13  CB       -47.0450   54.3480    3.8330 C.3    76  LEU76       0.0310
     14  CG       -46.6770   53.9380    2.4250 C.3    76  LEU76       0.0022
     15  CD1      -47.1720   52.5980    1.9830 C.3    76  LEU76       0.0001
     16  CD2      -47.1350   55.1700    1.5630 C.3    76  LEU76       0.0001
     17  N        -45.5190   54.1050    6.3680 N.am   77  PRO77      -0.2716
     18  CA       -45.2100   54.9460    7.4940 C.3    77  PRO77       0.1536
     19  C        -45.2080   56.3460    6.9780 C.2    77  PRO77       0.2598
     20  O        -45.6160   56.5670    5.8000 O.2    77  PRO77      -0.2715
     21  CB       -43.8070   54.5580    7.8060 C.3    77  PRO77       0.0310
     22  CG       -43.2560   54.2520    6.3510 C.3    77  PRO77       0.0237
     23  CD       -44.3360   53.5330    5.7120 C.3    77  PRO77       0.0939
     24  N        -44.7440   57.2630    7.8450 N.am   78  GLU78      -0.1978
     25  CA       -44.4750   58.6560    7.4350 C.3    78  GLU78       0.1602
     26  C        -43.4870   58.6340    6.2530 C.2    78  GLU78       0.2287
     27  O        -43.0230   57.6030    5.8570 O.2    78  GLU78      -0.2864
     28  CB       -43.9010   59.5470    8.5950 C.3    78  GLU78       0.0415
     29  CG       -44.8620   60.0120    9.8100 C.3    78  GLU78       0.1163
     30  CD       -45.7490   61.3600    9.6420 C.2    78  GLU78       0.3649
     31  OE1      -46.3700   61.6520    8.5390 O.co2  78  GLU78      -0.2457
     32  OE2      -45.8530   62.0860   10.6950 O.co2  78  GLU78      -0.2457
     33  N        -39.5000   58.0840    6.6920 N.3    81  LEU81      -0.1245
     34  CA       -39.3830   56.6430    6.7140 C.3    81  LEU81       0.1561
     35  C        -39.5010   55.7630    5.4050 C.2    81  LEU81       0.2260
     36  O        -39.4210   54.5400    5.5430 O.2    81  LEU81      -0.2867
     37  CB       -40.3800   56.1180    7.7140 C.3    81  LEU81       0.0270
     38  CG       -39.8940   56.0890    9.1570 C.3    81  LEU81       0.0019
     39  CD1      -40.0610   54.6380    9.6930 C.3    81  LEU81       0.0001
     40  CD2      -38.5360   56.4050    8.8390 C.3    81  LEU81       0.0001
     41  N        -36.2380   53.6210    4.0720 N.3    84  VAL84      -0.1231
     42  CA       -36.0080   52.4010    4.8740 C.3    84  VAL84       0.1692
     43  C        -37.0750   51.2950    4.6200 C.2    84  VAL84       0.2588
     44  O        -36.7870   50.1600    4.3410 O.2    84  VAL84      -0.2718
     45  CB       -35.8120   52.7190    6.3700 C.3    84  VAL84       0.0266
     46  CG1      -35.3640   51.5020    7.0690 C.3    84  VAL84       0.0020
     47  CG2      -34.7560   53.8370    6.5360 C.3    84  VAL84       0.0020
     48  N        -38.3320   51.6690    4.6530 N.am   85  PHE85      -0.2029
     49  CA       -39.3680   50.6880    4.6270 C.3    85  PHE85       0.1325
     50  C        -39.3500   49.9120    3.2880 C.3    85  PHE85       0.2039
     51  O        -39.6540   48.6480    3.2110 O.3    85  PHE85      -0.2185
     52  CB       -40.6470   51.4220    4.8260 C.3    85  PHE85       0.0507
     53  CG       -41.7810   50.7680    4.1940 C.ar   85  PHE85      -0.0204
     54  CD1      -42.1550   51.1050    2.9130 C.ar   85  PHE85      -0.0042
     55  CD2      -42.4850   49.7870    4.8580 C.ar   85  PHE85      -0.0042
     56  CE1      -43.2960   50.4980    2.3130 C.ar   85  PHE85      -0.0003
     57  CE2      -43.5720   49.1870    4.2760 C.ar   85  PHE85      -0.0003
     58  CZ       -43.9970   49.5570    3.0040 C.ar   85  PHE85      -0.0000
     59  N        -36.3620   47.2410    4.0860 N.3    88  LEU88      -0.1245
     60  CA       -37.1670   46.3670    4.8910 C.3    88  LEU88       0.1561
     61  C        -38.0490   45.3430    4.1370 C.2    88  LEU88       0.2260
     62  O        -38.0290   44.1290    4.4620 O.2    88  LEU88      -0.2867
     63  CB       -37.9950   47.2350    5.7700 C.3    88  LEU88       0.0270
     64  CG       -37.9920   46.4650    7.1020 C.3    88  LEU88       0.0019
     65  CD1      -37.7370   47.3970    8.2720 C.3    88  LEU88       0.0001
     66  CD2      -39.2620   45.6070    7.3710 C.3    88  LEU88       0.0001
     67  N        -32.9680   44.6970    9.1600 N.3    98  VAL98      -0.1245
     68  CA       -32.8980   45.3530   10.4180 C.3    98  VAL98       0.1561
     69  C        -31.4770   45.9080   10.6970 C.2    98  VAL98       0.2260
     70  O        -31.3160   47.1230   10.9630 O.2    98  VAL98      -0.2867
     71  CB       -33.4000   44.3910   11.4060 C.3    98  VAL98       0.0252
     72  CG1      -33.2010   44.9340   12.8880 C.3    98  VAL98       0.0019
     73  CG2      -34.8510   43.9680   10.9350 C.3    98  VAL98       0.0019
     74  N        -31.1280   48.6780    8.2360 N.3   101  MET101     -0.1245
     75  CA       -31.6350   49.8880    8.7900 C.3   101  MET101      0.1570
     76  C        -30.5300   50.5150    9.6830 C.2   101  MET101      0.2261
     77  O        -29.8730   51.5030    9.3060 O.2   101  MET101     -0.2867
     78  CB       -32.8020   49.4830    9.6200 C.3   101  MET101      0.0387
     79  CG       -33.9140   50.4970    9.7050 C.3   101  MET101      0.0595
     80  SD       -35.5220   49.6470    9.4110 S.3   101  MET101     -0.1393
     81  CE       -35.9310   48.7300   10.9590 C.3   101  MET101      0.0692
@<TRIPOS>BOND
     1    16    14    1
     2    15    14    1
     3    56    54   ar
     4    56    58   ar
     5    14    13    1
     6    54    53   ar
     7    58    57   ar
     8    51    50    1
     9    50    49    1
    10    13    10    1
    11     1     2    1
    12    41    42    1
    13    59    60    1
    14    61    62    2
    15    61    60    1
    16    53    52    1
    17    53    55   ar
    18    57    55   ar
    19    44    43    2
    20    43    48   am
    21    43    42    1
    22    49    48    1
    23    49    52    1
    24    42    45    1
    25     4     3    2
    26    10     9    1
    27    10    11    1
    28     9     3   am
    29    60    63    1
    30     3     2    1
    31     2     5    1
    32    35    36    2
    33    35    34    1
    34    23    22    1
    35    23    17    1
    36    63    64    1
    37    20    19    2
    38    27    26    2
    39     7     5    1
    40    11    17   am
    41    11    12    2
    42    26    25    1
    43    22    21    1
    44    17    18    1
    45    45    47    1
    46    45    46    1
    47     5     6    1
    48    33    34    1
    49    34    37    1
    50    19    18    1
    51    19    24   am
    52    64    66    1
    53    64    65    1
    54    25    24    1
    55    25    28    1
    56    18    21    1
    57     6     8    1
    58    37    38    1
    59    74    75    1
    60    31    30   ar
    61    28    29    1
    62    75    78    1
    63    75    76    1
    64    40    38    1
    65    38    39    1
    66    67    68    1
    67    77    76    2
    68    80    79    1
    69    80    81    1
    70    78    79    1
    71    30    29    1
    72    30    32   ar
    73    68    69    1
    74    68    71    1
    75    69    70    2
    76    73    71    1
    77    71    72    1
