@<TRIPOS>MOLECULE
tmp/2e7iA00.pdb
 129 120 0 0 0
SMALL
GASTEIGER

@<TRIPOS>ATOM
      1  N        -11.7690 -153.6700   -9.5560 N.3     8  LEU8       -0.1245
      2  CA       -10.8250 -153.4510  -10.6360 C.3     8  LEU8        0.1561
      3  C        -10.5850 -154.6910  -11.4890 C.2     8  LEU8        0.2260
      4  O         -9.8530 -154.6290  -12.4740 O.2     8  LEU8       -0.2867
      5  CB        -9.4930 -152.9660  -10.0660 C.3     8  LEU8        0.0270
      6  CG        -9.5070 -151.7740   -9.1060 C.3     8  LEU8        0.0019
      7  CD1      -10.1780 -150.5880   -9.7740 C.3     8  LEU8        0.0001
      8  CD2      -10.2300 -152.1540   -7.8190 C.3     8  LEU8        0.0001
      9  N         -5.3730 -146.5050  -22.8100 N.3    50  GLY50      -0.1210
     10  CA        -6.0200 -146.4870  -21.5090 C.3    50  GLY50       0.1956
     11  C         -7.0170 -145.3660  -21.4220 C.2    50  GLY50       0.2612
     12  O         -6.9400 -144.4400  -22.2170 O.2    50  GLY50      -0.2717
     13  N         -7.9380 -145.4350  -20.4640 N.am   51  ALA51      -0.1965
     14  CA        -8.9590 -144.3990  -20.3130 C.3    51  ALA51       0.1728
     15  C         -8.3430 -143.0510  -19.9610 C.2    51  ALA51       0.2616
     16  O         -8.6020 -142.0510  -20.6320 O.2    51  ALA51      -0.2715
     17  CB        -9.9530 -144.7960  -19.2500 C.3    51  ALA51       0.0334
     18  N         -7.5310 -143.0270  -18.9070 N.am   52  ARG52      -0.1977
     19  CA        -6.8810 -141.7960  -18.4770 C.3    52  ARG52       0.1597
     20  C         -6.1390 -141.2030  -19.6600 C.2    52  ARG52       0.2287
     21  O         -6.0100 -139.9900  -19.7830 O.2    52  ARG52      -0.2864
     22  CB        -5.9050 -142.0880  -17.3440 C.3    52  ARG52       0.0334
     23  CG        -4.7730 -143.0180  -17.7280 C.3    52  ARG52       0.0492
     24  CD        -4.0320 -143.4690  -16.4880 C.3    52  ARG52       0.2205
     25  NE        -4.9240 -144.1970  -15.5950 N.pl3  52  ARG52      -0.0865
     26  CZ        -4.5690 -144.7000  -14.4180 C.cat  52  ARG52       0.5346
     27  NH1       -5.4650 -145.3510  -13.6860 N.pl3  52  ARG52       0.1354
     28  NH2       -3.3290 -144.5490  -13.9670 N.pl3  52  ARG52       0.1354
     29  N         -8.8990 -139.6380  -21.6830 N.3    55  LYS55      -0.1245
     30  CA        -9.3980 -138.5100  -20.9280 C.3    55  LYS55       0.1561
     31  C         -8.4600 -137.3140  -21.1250 C.2    55  LYS55       0.2260
     32  O         -8.9060 -136.1720  -21.2740 O.2    55  LYS55      -0.2867
     33  CB        -9.5060 -138.8760  -19.4420 C.3    55  LYS55       0.0271
     34  CG       -10.6400 -139.8370  -19.1490 C.3    55  LYS55       0.0035
     35  CD       -10.9390 -139.9710  -17.6670 C.3    55  LYS55       0.0206
     36  CE        -9.9350 -140.8530  -16.9650 C.3    55  LYS55       0.1093
     37  NZ       -10.1160 -140.8380  -15.4810 N.3    55  LYS55      -0.1314
     38  N        -12.6830 -140.0810  -10.6920 N.3    76  HIS76      -0.1241
     39  CA       -11.5430 -140.9510  -10.4570 C.3    76  HIS76       0.1621
     40  C        -10.3380 -140.0140  -10.3000 C.2    76  HIS76       0.2264
     41  O        -10.4090 -138.8580  -10.7050 O.2    76  HIS76      -0.2867
     42  CB       -11.3700 -141.8910  -11.6560 C.3    76  HIS76       0.0745
     43  CG       -10.2320 -142.8530  -11.5090 C.ar   76  HIS76       0.0817
     44  ND1       -8.9490 -142.5580  -11.9180 N.ar   76  HIS76      -0.2268
     45  CD2      -10.1790 -144.0960  -10.9750 C.ar   76  HIS76       0.1154
     46  CE1       -8.1560 -143.5790  -11.6440 C.ar   76  HIS76       0.1986
     47  NE2       -8.8780 -144.5250  -11.0730 N.ar   76  HIS76      -0.2212
     48  N         -7.5010 -140.1560  -11.8610 N.3    78  SER78      -0.1217
     49  CA        -6.8630 -139.9160  -13.1570 C.3    78  SER78       0.1889
     50  C         -7.5950 -138.8190  -13.9260 C.2    78  SER78       0.2288
     51  O         -6.9910 -138.1220  -14.7370 O.2    78  SER78      -0.2866
     52  CB        -6.7940 -141.2020  -13.9990 C.3    78  SER78       0.2089
     53  OG        -8.0810 -141.7290  -14.2750 O.3    78  SER78      -0.2183
     54  N        -18.1550 -138.9840  -13.9730 N.3   127  THR127     -0.1218
     55  CA       -17.7340 -140.3610  -13.9140 C.3   127  THR127      0.1862
     56  C        -19.0300 -141.1490  -13.7420 C.2   127  THR127      0.2287
     57  O        -19.7190 -141.0350  -12.7270 O.2   127  THR127     -0.2866
     58  CB       -16.7620 -140.5790  -12.7580 C.3   127  THR127      0.1770
     59  OG1      -17.2410 -139.8770  -11.6040 O.3   127  THR127     -0.2211
     60  CG2      -15.3540 -140.0690  -13.1430 C.3   127  THR127      0.0375
     61  N        -20.2580 -144.9870  -13.9060 N.3   129  PRO129     -0.2116
     62  CA       -20.4490 -144.6030  -12.5020 C.3   129  PRO129      0.1372
     63  C        -19.0990 -144.3420  -11.8440 C.2   129  PRO129      0.2244
     64  O        -18.0680 -144.7320  -12.3790 O.2   129  PRO129     -0.2868
     65  CB       -21.1300 -145.8280  -11.9150 C.3   129  PRO129      0.0268
     66  CG       -20.4040 -146.9270  -12.5920 C.3   129  PRO129      0.0207
     67  CD       -20.2720 -146.4560  -14.0350 C.3   129  PRO129      0.0892
     68  N        -15.9680 -144.8820   -9.4540 N.3   131  GLY131     -0.1225
     69  CA       -15.3700 -146.1180   -8.9850 C.3   131  GLY131      0.1811
     70  C        -15.3520 -146.2080   -7.4760 C.2   131  GLY131      0.2280
     71  O        -14.7800 -147.1440   -6.9050 O.2   131  GLY131     -0.2866
     72  N        -16.9240 -140.3980  -18.3420 N.3   156  ASN156     -0.1240
     73  CA       -15.9070 -141.3760  -17.9470 C.3   156  ASN156      0.1653
     74  C        -16.6420 -142.7070  -17.7180 C.2   156  ASN156      0.2266
     75  O        -16.9660 -143.0830  -16.5900 O.2   156  ASN156     -0.2867
     76  CB       -15.2090 -140.9030  -16.6620 C.3   156  ASN156      0.1155
     77  CG       -14.0490 -141.8080  -16.2290 C.2   156  ASN156      0.2627
     78  OD1      -13.5490 -141.6880  -15.1010 O.2   156  ASN156     -0.2716
     79  ND2      -13.6180 -142.7000  -17.1110 N.am  156  ASN156     -0.0877
     80  N        -15.5900 -145.4820  -17.7470 N.3   158  ALA158     -0.1231
     81  CA       -14.6350 -146.4980  -17.3560 C.3   158  ALA158      0.1694
     82  C        -15.3510 -147.7120  -16.7620 C.2   158  ALA158      0.2592
     83  O        -15.0840 -148.8490  -17.1590 O.2   158  ALA158     -0.2718
     84  CB       -13.6530 -145.9210  -16.3590 C.3   158  ALA158      0.0304
     85  N        -16.2810 -147.4650  -15.8410 N.am  159  TYR159     -0.1976
     86  CA       -17.0060 -148.5480  -15.1890 C.3   159  TYR159      0.1639
     87  C        -18.3590 -148.9360  -15.7690 C.2   159  TYR159      0.2290
     88  O        -19.0630 -149.7630  -15.1890 O.2   159  TYR159     -0.2864
     89  CB       -17.1750 -148.2510  -13.6960 C.3   159  TYR159      0.0560
     90  CG       -16.0860 -148.8600  -12.8470 C.ar  159  TYR159     -0.0198
     91  CD1      -14.8240 -148.2760  -12.7630 C.ar  159  TYR159     -0.0009
     92  CD2      -16.2960 -150.0590  -12.1770 C.ar  159  TYR159     -0.0009
     93  CE1      -13.7940 -148.8810  -12.0320 C.ar  159  TYR159      0.0417
     94  CE2      -15.2770 -150.6700  -11.4490 C.ar  159  TYR159      0.0417
     95  CZ       -14.0290 -150.0780  -11.3790 C.ar  159  TYR159      0.1957
     96  OH       -13.0200 -150.6850  -10.6630 O.3   159  TYR159     -0.2866
     97  N        -12.5890 -148.2680  -20.3350 N.3   179  SER179     -0.1217
     98  CA       -11.3260 -148.9310  -19.9970 C.3   179  SER179      0.1889
     99  C        -11.3950 -150.4240  -20.2810 C.2   179  SER179      0.2288
    100  O        -12.1390 -151.1520  -19.6350 O.2   179  SER179     -0.2866
    101  CB       -10.9850 -148.7050  -18.5240 C.3   179  SER179      0.2089
    102  OG        -9.7270 -149.2710  -18.2110 O.3   179  SER179     -0.2183
    103  N         -9.2270 -152.8340  -19.6970 N.3   181  HIS181     -0.1226
    104  CA        -8.6670 -153.7260  -18.6900 C.3   181  HIS181      0.1752
    105  C         -9.3850 -153.7730  -17.3490 C.2   181  HIS181      0.2595
    106  O         -8.7960 -154.1800  -16.3430 O.2   181  HIS181     -0.2718
    107  CB        -7.1900 -153.4070  -18.4610 C.3   181  HIS181      0.0759
    108  CG        -6.9420 -152.0310  -17.9300 C.ar  181  HIS181      0.0818
    109  ND1       -7.2410 -150.8920  -18.6470 N.ar  181  HIS181     -0.2268
    110  CD2       -6.4030 -151.6090  -16.7610 C.ar  181  HIS181      0.1154
    111  CE1       -6.8930 -149.8290  -17.9440 C.ar  181  HIS181      0.1986
    112  NE2       -6.3820 -150.2360  -16.7950 N.ar  181  HIS181     -0.2212
    113  N        -10.6440 -153.3510  -17.3140 N.am  182  LYS182     -0.1980
    114  CA       -11.3930 -153.4340  -16.0520 C.3   182  LYS182      0.1596
    115  C        -12.8830 -153.6380  -16.3340 C.2   182  LYS182      0.2287
    116  O        -13.6210 -154.1060  -15.4690 O.2   182  LYS182     -0.2864
    117  CB       -11.1880 -152.1910  -15.1840 C.3   182  LYS182      0.0298
    118  CG       -11.7840 -150.9260  -15.8040 C.3   182  LYS182      0.0038
    119  CD       -11.7650 -149.7960  -14.7720 C.3   182  LYS182      0.0206
    120  CE       -10.3390 -149.4800  -14.3150 C.3   182  LYS182      0.1093
    121  NZ       -10.3670 -148.5980  -13.1380 N.3   182  LYS182     -0.1314
    122  N         -5.0260 -150.1620  -21.9780 N.3   190  ILE190     -0.1245
    123  CA        -5.7680 -149.9010  -23.2070 C.3   190  ILE190      0.1561
    124  C         -7.1180 -149.2460  -22.9270 C.2   190  ILE190      0.2260
    125  O         -7.7430 -149.5000  -21.8900 O.2   190  ILE190     -0.2867
    126  CB        -5.9890 -151.2190  -23.9770 C.3   190  ILE190      0.0252
    127  CG1       -6.4150 -150.9350  -25.4100 C.3   190  ILE190      0.0019
    128  CG2       -7.0420 -152.0610  -23.2730 C.3   190  ILE190      0.0019
    129  CD1       -6.5240 -152.1920  -26.2460 C.3   190  ILE190      0.0001
@<TRIPOS>BOND
     1   129   127    1
     2   127   126    1
     3   126   128    1
     4   126   123    1
     5   123   124    1
     6   123   122    1
     7   124   125    2
     8     9    10    1
     9    12    11    2
    10    29    30    1
    11    10    11    1
    12    11    13   am
    13    32    31    2
    14    31    30    1
    15    30    33    1
    16    16    15    2
    17    13    14    1
    18    97    98    1
    19    14    15    1
    20    14    17    1
    21    99    98    1
    22    99   100    2
    23    98   101    1
    24    15    18   am
    25    21    20    2
    26   103   104    1
    27    20    19    1
    28    33    34    1
    29    34    35    1
    30    18    19    1
    31   104   107    1
    32   104   105    1
    33   109   111   ar
    34   109   108   ar
    35   101   102    1
    36    19    22    1
    37   107   108    1
    38    72    73    1
    39    73    74    1
    40    73    76    1
    41   111   112   ar
    42   108   110   ar
    43    80    81    1
    44    23    22    1
    45    23    24    1
    46    74    75    2
    47    35    36    1
    48    81    82    1
    49    81    84    1
    50   105   113   am
    51   105   106    2
    52   113   114    1
    53    83    82    2
    54    79    77   am
    55    36    37    1
    56   112   110   ar
    57    82    85   am
    58    76    77    1
    59    24    25    1
    60   115   114    1
    61   115   116    2
    62    77    78    2
    63   114   117    1
    64    85    86    1
    65   118   117    1
    66   118   119    1
    67    87    86    1
    68    87    88    2
    69    25    26    2
    70    86    89    1
    71   119   120    1
    72    51    50    2
    73    26    28    1
    74    26    27    1
    75   120   121    1
    76    53    52    1
    77    67    61    1
    78    67    66    1
    79    52    49    1
    80    54    55    1
    81    50    49    1
    82    55    56    1
    83    55    58    1
    84    61    62    1
    85    56    57    2
    86    89    90    1
    87    49    48    1
    88    60    58    1
    89    90    91   ar
    90    90    92   ar
    91    91    93   ar
    92    58    59    1
    93    66    65    1
    94    62    65    1
    95    62    63    1
    96     4     3    2
    97    64    63    2
    98    92    94   ar
    99    93    95   ar
   100    44    46   ar
   101    44    43   ar
   102    42    43    1
   103    42    39    1
   104    46    47   ar
   105    43    45   ar
   106     3     2    1
   107    94    95   ar
   108    95    96    1
   109    47    45   ar
   110    41    40    2
   111    38    39    1
   112     2     5    1
   113     2     1    1
   114    39    40    1
   115     5     6    1
   116     7     6    1
   117    68    69    1
   118     6     8    1
   119    69    70    1
   120    70    71    2
