@<TRIPOS>MOLECULE
tmp/2e7pC00.pdb
 102 99 0 0 0
SMALL
GASTEIGER

@<TRIPOS>ATOM
      1  N        -16.7700   40.1450  -17.3940 N.3    26  LYS26      -0.1245
      2  CA       -17.8830   39.3030  -16.9910 C.3    26  LYS26       0.1561
      3  C        -19.0920   40.2430  -17.0260 C.2    26  LYS26       0.2260
      4  O        -18.9820   41.4340  -16.6740 O.2    26  LYS26      -0.2867
      5  CB       -17.7060   38.7510  -15.5670 C.3    26  LYS26       0.0271
      6  CG       -16.5710   37.7220  -15.3380 C.3    26  LYS26       0.0035
      7  CD       -16.9400   36.3280  -15.7340 C.3    26  LYS26       0.0206
      8  CE       -15.7140   35.4090  -15.6580 C.3    26  LYS26       0.1093
      9  NZ       -15.5540   34.7070  -14.3290 N.3    26  LYS26      -0.1314
     10  N        -21.7810   40.4140  -15.3500 N.3    28  TYR28      -0.1227
     11  CA       -22.3200   40.8350  -14.0680 C.3    28  TYR28       0.1736
     12  C        -21.4610   41.8590  -13.2960 C.2    28  TYR28       0.2595
     13  O        -21.8940   42.3340  -12.2360 O.2    28  TYR28      -0.2718
     14  CB       -22.5920   39.5950  -13.1990 C.3    28  TYR28       0.0548
     15  CG       -21.3700   38.7380  -12.9720 C.ar   28  TYR28      -0.0200
     16  CD1      -20.3800   39.1290  -12.0470 C.ar   28  TYR28      -0.0009
     17  CD2      -21.1890   37.5490  -13.6890 C.ar   28  TYR28      -0.0009
     18  CE1      -19.2550   38.3600  -11.8450 C.ar   28  TYR28       0.0417
     19  CE2      -20.0550   36.7520  -13.4920 C.ar   28  TYR28       0.0417
     20  CZ       -19.1000   37.1740  -12.5720 C.ar   28  TYR28       0.1957
     21  OH       -17.9990   36.4000  -12.3890 O.3    28  TYR28      -0.2866
     22  N        -20.2640   42.2120  -13.7940 N.am   29  CYS29      -0.1970
     23  CA       -19.3390   42.9560  -12.9550 C.3    29  CYS29       0.1712
     24  C        -19.3320   44.4560  -13.2060 C.2    29  CYS29       0.2296
     25  O        -19.0320   44.9150  -14.2960 O.2    29  CYS29      -0.2864
     26  CB       -17.8870   42.4110  -13.0000 C.3    29  CYS29       0.0983
     27  SG       -16.8050   43.1180  -11.6590 S.3    29  CYS29      -0.0798
     28  N        -17.0790   46.5560  -11.9310 N.3    31  TYR31      -0.1241
     29  CA       -15.7150   46.9760  -12.2560 C.3    31  TYR31       0.1605
     30  C        -15.5230   46.9080  -13.7650 C.2    31  TYR31       0.2264
     31  O        -14.9680   47.8240  -14.3730 O.2    31  TYR31      -0.2867
     32  CB       -14.6760   46.1120  -11.5350 C.3    31  TYR31       0.0534
     33  CG       -14.3980   46.5000  -10.0780 C.ar   31  TYR31      -0.0201
     34  CD1      -14.7590   47.7450   -9.6070 C.ar   31  TYR31      -0.0009
     35  CD2      -13.7770   45.6060   -9.1850 C.ar   31  TYR31      -0.0009
     36  CE1      -14.5270   48.1220   -8.2970 C.ar   31  TYR31       0.0417
     37  CE2      -13.5060   45.9840   -7.8700 C.ar   31  TYR31       0.0417
     38  CZ       -13.9060   47.2610   -7.4360 C.ar   31  TYR31       0.1957
     39  OH       -13.6790   47.7430   -6.1500 O.3    31  TYR31      -0.2866
     40  N         -9.7510   32.3390  -18.8110 N.3    61  GLN61      -0.1245
     41  CA        -9.4160   33.1210  -17.6230 C.3    61  GLN61       0.1566
     42  C         -8.1580   32.6280  -16.9260 C.2    61  GLN61       0.2260
     43  O         -7.2960   33.4330  -16.5940 O.2    61  GLN61      -0.2867
     44  CB       -10.5680   33.1500  -16.6290 C.3    61  GLN61       0.0367
     45  CG       -10.4190   34.2940  -15.5560 C.3    61  GLN61       0.0905
     46  CD       -11.7280   34.5960  -14.8620 C.2    61  GLN61       0.2608
     47  OE1      -12.7810   34.2680  -15.3790 O.2    61  GLN61      -0.2717
     48  NE2      -11.6730   35.2390  -13.6920 N.am   61  GLN61      -0.0878
     49  N         -2.7420   38.4310  -14.0830 N.3    70  ARG70      -0.1231
     50  CA        -4.0630   38.9830  -13.6920 C.3    70  ARG70       0.1694
     51  C         -5.1590   37.9660  -13.9800 C.2    70  ARG70       0.2593
     52  O         -5.4920   37.7240  -15.1540 O.2    70  ARG70      -0.2718
     53  CB        -4.3470   40.3040  -14.4260 C.3    70  ARG70       0.0321
     54  CG        -5.7110   40.9440  -14.0820 C.3    70  ARG70       0.0489
     55  CD        -5.8840   42.2750  -14.7770 C.3    70  ARG70       0.2205
     56  NE        -4.8740   43.1900  -14.3120 N.pl3  70  ARG70      -0.0865
     57  CZ        -4.9510   43.8790  -13.1730 C.cat  70  ARG70       0.5346
     58  NH1       -6.0570   43.8170  -12.4290 N.pl3  70  ARG70       0.1354
     59  NH2       -3.9270   44.6390  -12.7980 N.pl3  70  ARG70       0.1354
     60  N         -5.6880   37.3370  -12.9220 N.am   71  GLY71      -0.1942
     61  CA        -6.7270   36.2980  -13.0840 C.3    71  GLY71       0.2014
     62  C         -8.1520   36.7990  -12.8280 C.2    71  GLY71       0.2640
     63  O         -9.1000   36.0070  -12.7210 O.2    71  GLY71      -0.2714
     64  N         -8.2810   38.1270  -12.7520 N.am   72  THR72      -0.1936
     65  CA        -9.5180   38.8090  -12.4520 C.3    72  THR72       0.2028
     66  C         -9.9670   39.6030  -13.6930 C.2    72  THR72       0.2642
     67  O         -9.1750   39.8300  -14.6170 O.2    72  THR72      -0.2714
     68  CB        -9.3110   39.8280  -11.2950 C.3    72  THR72       0.1808
     69  OG1       -8.2490   40.7250  -11.6540 O.3    72  THR72      -0.2208
     70  CG2       -8.9890   39.1320   -9.9490 C.3    72  THR72       0.0379
     71  N        -11.2350   40.0150  -13.7050 N.am   73  VAL73      -0.1963
     72  CA       -11.7690   40.9140  -14.7290 C.3    73  VAL73       0.1712
     73  C        -12.0450   42.2780  -14.0830 C.2    73  VAL73       0.2458
     74  O        -12.3070   42.3380  -12.8800 O.2    73  VAL73      -0.2730
     75  CB       -13.0490   40.3250  -15.3670 C.3    73  VAL73       0.0289
     76  CG1      -12.7060   39.0070  -16.0870 C.3    73  VAL73       0.0023
     77  CG2      -14.1070   40.0950  -14.3170 C.3    73  VAL73       0.0023
     78  N        -11.9770   43.3800  -14.8540 N.am   74  PRO74      -0.2727
     79  CA       -11.6210   43.4130  -16.2700 C.3    74  PRO74       0.1402
     80  C        -10.1090   43.2200  -16.4810 C.2    74  PRO74       0.2269
     81  O         -9.2900   43.5440  -15.6110 O.2    74  PRO74      -0.2865
     82  CB       -12.0830   44.7830  -16.7270 C.3    74  PRO74       0.0296
     83  CG       -11.9270   45.6930  -15.3720 C.3    74  PRO74       0.0237
     84  CD       -12.2450   44.7260  -14.2730 C.3    74  PRO74       0.0939
     85  N         -6.2140   46.3600  -14.8860 N.3    85  GLY85      -0.1210
     86  CA        -7.6040   46.1710  -14.5370 C.3    85  GLY85       0.1956
     87  C         -8.3410   47.4870  -14.4550 C.2    85  GLY85       0.2612
     88  O         -7.9580   48.4610  -15.1060 O.2    85  GLY85      -0.2717
     89  N         -9.4090   47.5090  -13.6610 N.am   86  CYS86      -0.1956
     90  CA       -10.2160   48.7240  -13.4670 C.3    86  CYS86       0.1843
     91  C         -9.4030   49.8200  -12.7590 C.2    86  CYS86       0.2625
     92  O         -9.3250   50.9330  -13.2390 O.2    86  CYS86      -0.2714
     93  CB       -11.4780   48.3880  -12.6620 C.3    86  CYS86       0.0997
     94  SG       -12.6140   49.7560  -12.5030 S.3    86  CYS86      -0.0797
     95  N         -8.7670   49.4900  -11.6390 N.am   87  ASP87      -0.1971
     96  CA        -7.9440   50.4690  -10.9480 C.3    87  ASP87       0.1709
     97  C         -6.9530   51.1060  -11.9190 C.2    87  ASP87       0.2293
     98  O         -6.8300   52.3250  -11.9500 O.2    87  ASP87      -0.2864
     99  CB        -7.1960   49.8750   -9.7480 C.3    87  ASP87       0.1436
    100  CG        -8.1110   49.5440   -8.6020 C.2    87  ASP87       0.3671
    101  OD1       -9.2870   49.9730   -8.5840 O.co2  87  ASP87      -0.2456
    102  OD2       -7.6710   48.8150   -7.6920 O.co2  87  ASP87      -0.2456
@<TRIPOS>BOND
     1    40    41    1
     2    41    42    1
     3    41    44    1
     4     1     2    1
     5     3     2    1
     6     3     4    2
     7     2     5    1
     8    42    43    2
     9    82    79    1
    10    82    83    1
    11    44    45    1
    12    80    79    1
    13    80    81    2
    14    79    78    1
    15    76    75    1
    16     7     8    1
    17     7     6    1
    18     8     9    1
    19     5     6    1
    20    45    46    1
    21    47    46    2
    22    83    84    1
    23    75    72    1
    24    75    77    1
    25    10    11    1
    26    52    51    2
    27    88    87    2
    28    85    86    1
    29    46    48   am
    30    78    84    1
    31    78    73   am
    32    55    56    1
    33    55    54    1
    34    72    73    1
    35    72    71    1
    36    67    66    2
    37    86    87    1
    38    87    89   am
    39    53    54    1
    40    53    50    1
    41    31    30    2
    42    56    57    2
    43    25    24    2
    44    73    74    2
    45    49    50    1
    46    11    12    1
    47    11    14    1
    48    51    50    1
    49    51    60   am
    50    22    12   am
    51    22    23    1
    52    30    29    1
    53    71    66   am
    54    66    65    1
    55    17    19   ar
    56    17    15   ar
    57    89    90    1
    58    19    20   ar
    59    90    91    1
    60    90    93    1
    61    12    13    2
    62    92    91    2
    63    24    23    1
    64    14    15    1
    65    57    59    1
    66    57    58    1
    67    61    60    1
    68    61    62    1
    69    26    23    1
    70    26    27    1
    71    15    16   ar
    72    62    64   am
    73    62    63    2
    74    91    95   am
    75    64    65    1
    76    93    94    1
    77    20    21    1
    78    20    18   ar
    79    65    68    1
    80    29    28    1
    81    29    32    1
    82    16    18   ar
    83    98    97    2
    84    97    96    1
    85    69    68    1
    86    95    96    1
    87    32    33    1
    88    68    70    1
    89    96    99    1
    90    33    34   ar
    91    33    35   ar
    92    99   100    1
    93    34    36   ar
    94    35    37   ar
    95   100   101   ar
    96   100   102   ar
    97    36    38   ar
    98    37    38   ar
    99    38    39    1
