@<TRIPOS>MOLECULE
tmp/2e7qC01.pdb
 105 100 0 0 0
SMALL
GASTEIGER

@<TRIPOS>ATOM
      1  N         62.2310   43.2360   34.9690 N.3    84  HIS84      -0.1241
      2  CA        63.2720   42.3410   34.4770 C.3    84  HIS84       0.1621
      3  C         63.1250   40.9040   34.9670 C.2    84  HIS84       0.2264
      4  O         63.0900   40.6390   36.1720 O.2    84  HIS84      -0.2867
      5  CB        64.6450   42.8870   34.8880 C.3    84  HIS84       0.0745
      6  CG        64.7400   43.2480   36.3390 C.ar   84  HIS84       0.0817
      7  ND1       65.7680   44.0100   36.8510 N.ar   84  HIS84      -0.2268
      8  CD2       63.9380   42.9510   37.3910 C.ar   84  HIS84       0.1154
      9  CE1       65.5970   44.1670   38.1520 C.ar   84  HIS84       0.1986
     10  NE2       64.4930   43.5350   38.5060 N.ar   84  HIS84      -0.2212
     11  N         64.1040   36.9650   35.8270 N.3    86  ALA86      -0.1231
     12  CA        65.2640   36.4080   36.5150 C.3    86  ALA86       0.1694
     13  C         64.9320   35.0230   37.0540 C.2    86  ALA86       0.2592
     14  O         63.7630   34.7320   37.3060 O.2    86  ALA86      -0.2718
     15  CB        65.6750   37.3210   37.6550 C.3    86  ALA86       0.0304
     16  N         65.9390   34.1590   37.2280 N.am   87  ASP87      -0.1974
     17  CA        67.3370   34.4600   36.9270 C.3    87  ASP87       0.1709
     18  C         67.8800   33.5940   35.7870 C.2    87  ASP87       0.2293
     19  O         68.8120   33.9860   35.0820 O.2    87  ASP87      -0.2864
     20  CB        68.2130   34.2610   38.1760 C.3    87  ASP87       0.1436
     21  CG        68.3560   35.5240   39.0410 C.2    87  ASP87       0.3671
     22  OD1       67.8020   35.5720   40.1610 O.co2  87  ASP87      -0.2456
     23  OD2       69.0270   36.4800   38.5980 O.co2  87  ASP87      -0.2456
     24  N         71.1170   35.1010   41.1230 N.3   105  GLY105     -0.1225
     25  CA        72.1050   34.9830   40.0680 C.3   105  GLY105      0.1811
     26  C         73.0590   33.8240   40.2680 C.2   105  GLY105      0.2280
     27  O         73.9840   33.6560   39.4900 O.2   105  GLY105     -0.2866
     28  N         69.0070   37.2510   33.6270 N.3   126  PHE126     -0.1241
     29  CA        69.1860   38.4870   34.3730 C.3   126  PHE126      0.1605
     30  C         70.6340   38.9700   34.3060 C.2   126  PHE126      0.2264
     31  O         71.5540   38.1830   34.4860 O.2   126  PHE126     -0.2867
     32  CB        68.8160   38.2370   35.8270 C.3   126  PHE126      0.0534
     33  CG        68.8220   39.4690   36.6650 C.ar  126  PHE126     -0.0203
     34  CD1       67.8150   40.4220   36.5230 C.ar  126  PHE126     -0.0042
     35  CD2       69.8430   39.6910   37.5870 C.ar  126  PHE126     -0.0042
     36  CE1       67.8270   41.5810   37.2910 C.ar  126  PHE126     -0.0003
     37  CE2       69.8680   40.8450   38.3580 C.ar  126  PHE126     -0.0003
     38  CZ        68.8590   41.7930   38.2120 C.ar  126  PHE126     -0.0000
     39  N         73.5440   40.3700   35.9870 N.3   128  ASN128     -0.1240
     40  CA        74.1670   40.7110   37.2660 C.3   128  ASN128      0.1653
     41  C         75.3960   41.5710   36.9980 C.2   128  ASN128      0.2266
     42  O         75.7490   41.7960   35.8410 O.2   128  ASN128     -0.2867
     43  CB        74.5750   39.4600   38.0280 C.3   128  ASN128      0.1155
     44  CG        73.3820   38.7180   38.5820 C.2   128  ASN128      0.2627
     45  OD1       72.7780   37.8900   37.9090 O.2   128  ASN128     -0.2716
     46  ND2       73.0290   39.0170   39.8230 N.am  128  ASN128     -0.0877
     47  N         78.4600   40.9150   37.2190 N.3   130  TRP130     -0.1241
     48  CA        79.4420   40.1100   36.5100 C.3   130  TRP130      0.1605
     49  C         78.9770   39.6090   35.1290 C.2   130  TRP130      0.2264
     50  O         79.7040   38.8700   34.4530 O.2   130  TRP130     -0.2867
     51  CB        79.7860   38.9210   37.3860 C.3   130  TRP130      0.0550
     52  CG        78.5750   38.1210   37.6970 C.ar  130  TRP130      0.0003
     53  CD1       77.8890   37.3140   36.8390 C.ar  130  TRP130      0.0946
     54  CD2       77.8950   38.0420   38.9550 C.ar  130  TRP130      0.0152
     55  NE1       76.8300   36.7310   37.4850 N.ar  130  TRP130     -0.2442
     56  CE2       76.8090   37.1600   38.7860 C.ar  130  TRP130      0.0810
     57  CE3       78.0990   38.6310   40.2080 C.ar  130  TRP130      0.0012
     58  CZ2       75.9290   36.8490   39.8220 C.ar  130  TRP130      0.0191
     59  CZ3       77.2250   38.3220   41.2390 C.ar  130  TRP130      0.0001
     60  CH2       76.1530   37.4380   41.0390 C.ar  130  TRP130      0.0015
     61  N         63.9010   35.6560   40.7710 N.3   211  GLY211     -0.1210
     62  CA        64.3590   36.8420   41.4730 C.3   211  GLY211      0.1956
     63  C         64.5350   36.6680   42.9710 C.2   211  GLY211      0.2611
     64  O         63.6870   36.1030   43.6690 O.2   211  GLY211     -0.2717
     65  N         65.6610   37.1630   43.4690 N.am  212  ASP212     -0.1973
     66  CA        65.9870   37.1060   44.8930 C.3   212  ASP212      0.1709
     67  C         65.2310   38.2460   45.5900 C.2   212  ASP212      0.2293
     68  O         65.0860   39.3370   45.0310 O.2   212  ASP212     -0.2864
     69  CB        67.4960   37.2830   45.0810 C.3   212  ASP212      0.1436
     70  CG        67.9460   36.9980   46.4970 C.2   212  ASP212      0.3671
     71  OD1       68.1030   35.8060   46.8540 O.co2 212  ASP212     -0.2456
     72  OD2       68.1330   37.9700   47.2580 O.co2 212  ASP212     -0.2456
     73  N         66.0740   40.2850   47.8860 N.3   214  SER214     -0.1202
     74  CA        66.8910   41.4910   48.0510 C.3   214  SER214      0.2020
     75  C         66.7340   42.4690   46.8800 C.2   214  SER214      0.2619
     76  O         67.0100   43.6610   47.0180 O.2   214  SER214     -0.2717
     77  CB        68.3790   41.1270   48.2220 C.3   214  SER214      0.2103
     78  OG        68.9390   40.5970   47.0320 O.3   214  SER214     -0.2182
     79  N         66.2940   41.9610   45.7320 N.am  215  GLY215     -0.1942
     80  CA        66.1030   42.8160   44.5750 C.3   215  GLY215      0.2014
     81  C         64.8250   43.6200   44.7110 C.2   215  GLY215      0.2639
     82  O         64.5680   44.5410   43.9260 O.2   215  GLY215     -0.2714
     83  N         64.0190   43.2480   45.7070 N.am  216  LYS216     -0.1963
     84  CA        62.7580   43.9190   46.0040 C.3   216  LYS216      0.1728
     85  C         61.8330   44.0750   44.8010 C.2   216  LYS216      0.2616
     86  O         61.1520   45.0880   44.6550 O.2   216  LYS216     -0.2715
     87  CB        63.0520   45.3060   46.6150 C.3   216  LYS216      0.0311
     88  CG        63.8880   45.2110   47.8880 C.3   216  LYS216      0.0038
     89  CD        64.1890   46.5730   48.4930 C.3   216  LYS216      0.0206
     90  CE        64.9540   46.4350   49.8120 C.3   216  LYS216      0.1093
     91  NZ        64.1860   45.6850   50.8560 N.3   216  LYS216     -0.1314
     92  N         61.8410   43.0780   43.9230 N.am  217  GLN217     -0.1977
     93  CA        60.9980   43.0920   42.7350 C.3   217  GLN217      0.1601
     94  C         60.3400   41.7320   42.5420 C.2   217  GLN217      0.2287
     95  O         60.9740   40.7870   42.0720 O.2   217  GLN217     -0.2864
     96  CB        61.8370   43.4450   41.5130 C.3   217  GLN217      0.0394
     97  CG        62.1360   44.9190   41.3780 C.3   217  GLN217      0.0908
     98  CD        60.8700   45.7400   41.3220 C.2   217  GLN217      0.2608
     99  OE1       59.8510   45.2970   40.7810 O.2   217  GLN217     -0.2717
    100  NE2       60.9240   46.9470   41.8720 N.am  217  GLN217     -0.0878
    101  N         60.4400   40.0870   39.1450 N.3   220  ALA220     -0.1245
    102  CA        61.6870   39.4650   38.7150 C.3   220  ALA220      0.1562
    103  C         61.5430   37.9540   38.7770 C.2   220  ALA220      0.2260
    104  O         62.0920   37.3160   39.6680 O.2   220  ALA220     -0.2867
    105  CB        62.8290   39.9080   39.6170 C.3   220  ALA220      0.0290
@<TRIPOS>BOND
     1    28    29    1
     2    30    29    1
     3    30    31    2
     4    29    32    1
     5    50    49    2
     6     2     5    1
     7     2     3    1
     8     2     1    1
     9     5     6    1
    10     3     4    2
    11    19    18    2
    12    49    48    1
    13    18    17    1
    14    11    12    1
    15    32    33    1
    16    42    41    2
    17    39    40    1
    18     6     7   ar
    19     6     8   ar
    20    48    47    1
    21    48    51    1
    22    12    13    1
    23    12    15    1
    24    34    33   ar
    25    34    36   ar
    26    33    35   ar
    27    53    55   ar
    28    53    52   ar
    29     7     9   ar
    30    17    16    1
    31    17    20    1
    32    41    40    1
    33    13    16   am
    34    13    14    2
    35    40    43    1
    36    36    38   ar
    37    51    52    1
    38     8    10   ar
    39    55    56   ar
    40    35    37   ar
    41    52    54   ar
    42    45    44    2
    43    43    44    1
    44     9    10   ar
    45    20    21    1
    46    38    37   ar
    47    44    46   am
    48    23    21   ar
    49   102   103    1
    50   102   101    1
    51   102   105    1
    52   103   104    2
    53    56    54   ar
    54    56    58   ar
    55    54    57   ar
    56    21    22   ar
    57    27    26    2
    58    58    60   ar
    59    25    26    1
    60    25    24    1
    61    57    59   ar
    62    61    62    1
    63    99    98    2
    64    60    59   ar
    65    98    97    1
    66    98   100   am
    67    97    96    1
    68    62    63    1
    69    96    93    1
    70    95    94    2
    71    94    93    1
    72    93    92    1
    73    63    65   am
    74    63    64    2
    75    65    66    1
    76    92    85   am
    77    82    81    2
    78    80    81    1
    79    80    79    1
    80    86    85    2
    81    81    83   am
    82    85    84    1
    83    66    69    1
    84    66    67    1
    85    68    67    2
    86    69    70    1
    87    83    84    1
    88    79    75   am
    89    84    87    1
    90    70    71   ar
    91    70    72   ar
    92    87    88    1
    93    75    76    2
    94    75    74    1
    95    78    77    1
    96    73    74    1
    97    88    89    1
    98    74    77    1
    99    89    90    1
   100    90    91    1
