@<TRIPOS>MOLECULE
tmp/2e7tC01.pdb
 134 130 0 0 0
SMALL
GASTEIGER

@<TRIPOS>ATOM
      1  N         62.4870   43.8070   35.1150 N.3    84  HIS84      -0.1241
      2  CA        63.5330   42.8850   34.6860 C.3    84  HIS84       0.1621
      3  C         63.3420   41.4620   35.2060 C.2    84  HIS84       0.2264
      4  O         63.3220   41.2330   36.4240 O.2    84  HIS84      -0.2867
      5  CB        64.9190   43.4090   35.1370 C.3    84  HIS84       0.0745
      6  CG        64.9830   43.7830   36.5890 C.ar   84  HIS84       0.0817
      7  ND1       65.0420   45.0940   37.0180 N.ar   84  HIS84      -0.2268
      8  CD2       64.9670   43.0240   37.7120 C.ar   84  HIS84       0.1154
      9  CE1       65.0620   45.1250   38.3420 C.ar   84  HIS84       0.1986
     10  NE2       65.0180   43.8820   38.7880 N.ar   84  HIS84      -0.2212
     11  N         64.1890   37.4350   36.0620 N.3    86  ALA86      -0.1231
     12  CA        65.3540   36.8160   36.6780 C.3    86  ALA86       0.1694
     13  C         65.0100   35.4330   37.1830 C.2    86  ALA86       0.2592
     14  O         63.8480   35.1380   37.3750 O.2    86  ALA86      -0.2718
     15  CB        65.8500   37.6870   37.8120 C.3    86  ALA86       0.0304
     16  N         66.0080   34.5720   37.3890 N.am   87  ASP87      -0.1974
     17  CA        67.4290   34.8770   37.1390 C.3    87  ASP87       0.1709
     18  C         67.9770   34.0410   35.9910 C.2    87  ASP87       0.2293
     19  O         68.8620   34.4870   35.2480 O.2    87  ASP87      -0.2864
     20  CB        68.2770   34.5920   38.3770 C.3    87  ASP87       0.1436
     21  CG        68.3390   35.7700   39.2970 C.2    87  ASP87       0.3671
     22  OD1       67.7150   35.7240   40.3810 O.co2  87  ASP87      -0.2456
     23  OD2       69.0020   36.7580   38.9210 O.co2  87  ASP87      -0.2456
     24  N         73.2490   29.4930   47.0340 N.3   102  GLU102     -0.1231
     25  CA        72.5150   30.7550   47.0680 C.3   102  GLU102      0.1699
     26  C         71.6640   30.8990   45.7890 C.2   102  GLU102      0.2593
     27  O         72.0250   30.3840   44.7270 O.2   102  GLU102     -0.2718
     28  CB        73.5160   31.9070   47.1650 C.3   102  GLU102      0.0402
     29  CG        72.9900   33.1520   47.8510 C.3   102  GLU102      0.1161
     30  CD        73.3340   33.2000   49.3310 C.2   102  GLU102      0.3649
     31  OE1       72.8280   32.3570   50.1030 O.co2 102  GLU102     -0.2457
     32  OE2       74.1280   34.0900   49.7170 O.co2 102  GLU102     -0.2457
     33  N         70.5360   31.5970   45.8860 N.am  103  GLY103     -0.1942
     34  CA        69.6800   31.7650   44.7330 C.3   103  GLY103      0.2014
     35  C         70.0870   32.9790   43.9270 C.2   103  GLY103      0.2639
     36  O         71.2680   33.2940   43.8010 O.2   103  GLY103     -0.2714
     37  N         69.1110   33.6720   43.3610 N.am  104  GLY104     -0.1939
     38  CA        69.4130   34.8520   42.5850 C.3   104  GLY104      0.2014
     39  C         70.3830   34.5620   41.4570 C.2   104  GLY104      0.2639
     40  O         70.2810   33.5350   40.7810 O.2   104  GLY104     -0.2714
     41  N         71.3340   35.4710   41.2540 N.am  105  GLY105     -0.1939
     42  CA        72.3120   35.3190   40.1880 C.3   105  GLY105      0.2014
     43  C         73.2690   34.1760   40.4020 C.2   105  GLY105      0.2638
     44  O         74.1520   33.9620   39.5810 O.2   105  GLY105     -0.2714
     45  N         73.1190   33.4410   41.5030 N.am  106  TYR106     -0.1973
     46  CA        74.0030   32.3090   41.7570 C.3   106  TYR106      0.1639
     47  C         73.3610   31.0070   41.3150 C.2   106  TYR106      0.2290
     48  O         73.9410   29.9360   41.4920 O.2   106  TYR106     -0.2864
     49  CB        74.3720   32.2410   43.2310 C.3   106  TYR106      0.0560
     50  CG        75.2430   33.3900   43.6560 C.ar  106  TYR106     -0.0198
     51  CD1       76.4770   33.6100   43.0500 C.ar  106  TYR106     -0.0009
     52  CD2       74.8280   34.2750   44.6470 C.ar  106  TYR106     -0.0009
     53  CE1       77.2790   34.6900   43.4190 C.ar  106  TYR106      0.0417
     54  CE2       75.6160   35.3520   45.0260 C.ar  106  TYR106      0.0417
     55  CZ        76.8380   35.5590   44.4110 C.ar  106  TYR106      0.1957
     56  OH        77.6060   36.6360   44.7730 O.3   106  TYR106     -0.2866
     57  N         69.1530   37.7290   33.8430 N.3   126  PHE126     -0.1241
     58  CA        69.2620   38.9650   34.6080 C.3   126  PHE126      0.1605
     59  C         70.7130   39.4150   34.5800 C.2   126  PHE126      0.2264
     60  O         71.6070   38.6010   34.7110 O.2   126  PHE126     -0.2867
     61  CB        68.8490   38.7440   36.0670 C.3   126  PHE126      0.0534
     62  CG        68.9470   39.9840   36.9080 C.ar  126  PHE126     -0.0203
     63  CD1       67.9830   40.9860   36.8130 C.ar  126  PHE126     -0.0042
     64  CD2       70.0260   40.1750   37.7490 C.ar  126  PHE126     -0.0042
     65  CE1       68.1000   42.1640   37.5470 C.ar  126  PHE126     -0.0003
     66  CE2       70.1610   41.3470   38.4910 C.ar  126  PHE126     -0.0003
     67  CZ        69.2010   42.3420   38.3910 C.ar  126  PHE126     -0.0000
     68  N         73.7430   40.8470   36.3000 N.3   128  ASN128     -0.1240
     69  CA        74.3730   41.2000   37.5580 C.3   128  ASN128      0.1653
     70  C         75.5850   42.0890   37.2470 C.2   128  ASN128      0.2266
     71  O         75.9240   42.3060   36.0790 O.2   128  ASN128     -0.2867
     72  CB        74.8550   39.9530   38.3120 C.3   128  ASN128      0.1155
     73  CG        73.7470   38.9430   38.6210 C.2   128  ASN128      0.2627
     74  OD1       73.5120   38.0120   37.8620 O.2   128  ASN128     -0.2716
     75  ND2       73.0910   39.1110   39.7440 N.am  128  ASN128     -0.0877
     76  N         78.5800   41.4820   37.4040 N.3   130  TRP130     -0.1241
     77  CA        79.5920   40.7220   36.6840 C.3   130  TRP130      0.1605
     78  C         79.1810   40.2150   35.3020 C.2   130  TRP130      0.2264
     79  O         79.9490   39.5060   34.6500 O.2   130  TRP130     -0.2867
     80  CB        80.0060   39.5420   37.5400 C.3   130  TRP130      0.0550
     81  CG        78.8870   38.6390   37.8000 C.ar  130  TRP130      0.0003
     82  CD1       78.2930   37.7950   36.9100 C.ar  130  TRP130      0.0946
     83  CD2       78.1870   38.4860   39.0370 C.ar  130  TRP130      0.0152
     84  NE1       77.2620   37.1160   37.5190 N.ar  130  TRP130     -0.2442
     85  CE2       77.1730   37.5220   38.8270 C.ar  130  TRP130      0.0810
     86  CE3       78.3160   39.0660   40.3060 C.ar  130  TRP130      0.0012
     87  CZ2       76.2910   37.1260   39.8410 C.ar  130  TRP130      0.0191
     88  CZ3       77.4400   38.6680   41.3170 C.ar  130  TRP130      0.0001
     89  CH2       76.4410   37.7080   41.0760 C.ar  130  TRP130      0.0015
     90  N         64.1020   36.0710   41.0480 N.3   211  GLY211     -0.1210
     91  CA        64.5490   37.2440   41.7750 C.3   211  GLY211      0.1956
     92  C         64.7230   37.0780   43.2750 C.2   211  GLY211      0.2611
     93  O         63.8640   36.5310   43.9550 O.2   211  GLY211     -0.2717
     94  N         65.8450   37.5600   43.7890 N.am  212  ASP212     -0.1973
     95  CA        66.1420   37.5050   45.2150 C.3   212  ASP212      0.1709
     96  C         65.4290   38.6910   45.8650 C.2   212  ASP212      0.2293
     97  O         65.3900   39.7910   45.3060 O.2   212  ASP212     -0.2864
     98  CB        67.6560   37.6360   45.4320 C.3   212  ASP212      0.1436
     99  CG        68.0820   37.3830   46.8780 C.2   212  ASP212      0.3671
    100  OD1       67.8920   36.2460   47.3770 O.co2 212  ASP212     -0.2456
    101  OD2       68.6130   38.3220   47.5040 O.co2 212  ASP212     -0.2456
    102  N         66.2390   40.7180   48.0910 N.3   214  SER214     -0.1202
    103  CA        67.0920   41.8880   48.2460 C.3   214  SER214      0.2020
    104  C         66.8960   42.9120   47.1220 C.2   214  SER214      0.2619
    105  O         67.1750   44.1020   47.3070 O.2   214  SER214     -0.2717
    106  CB        68.5600   41.4600   48.3250 C.3   214  SER214      0.2103
    107  OG        68.9930   40.8980   47.1010 O.3   214  SER214     -0.2182
    108  N         66.4140   42.4550   45.9700 N.am  215  GLY215     -0.1942
    109  CA        66.1900   43.3560   44.8480 C.3   215  GLY215      0.2014
    110  C         64.9140   44.1660   44.9830 C.2   215  GLY215      0.2639
    111  O         64.6770   45.1000   44.2150 O.2   215  GLY215     -0.2714
    112  N         64.0860   43.7910   45.9600 N.am  216  LYS216     -0.1963
    113  CA        62.8190   44.4810   46.2330 C.3   216  LYS216      0.1728
    114  C         61.8760   44.5450   45.0300 C.2   216  LYS216      0.2616
    115  O         61.1610   45.5270   44.8450 O.2   216  LYS216     -0.2715
    116  CB        63.1070   45.9000   46.7280 C.3   216  LYS216      0.0311
    117  CG        63.9270   45.9310   48.0140 C.3   216  LYS216      0.0038
    118  CD        64.2690   47.3490   48.4410 C.3   216  LYS216      0.0206
    119  CE        64.9970   47.3750   49.7850 C.3   216  LYS216      0.1093
    120  NZ        66.1490   46.3960   49.8320 N.3   216  LYS216     -0.1314
    121  N         61.8740   43.4960   44.2130 N.am  217  GLN217     -0.1977
    122  CA        61.0250   43.4510   43.0290 C.3   217  GLN217      0.1601
    123  C         60.3740   42.0820   42.8710 C.2   217  GLN217      0.2287
    124  O         61.0460   41.0860   42.5940 O.2   217  GLN217     -0.2864
    125  CB        61.8550   43.7690   41.7870 C.3   217  GLN217      0.0394
    126  CG        62.2980   45.2080   41.6880 C.3   217  GLN217      0.0908
    127  CD        61.1430   46.1490   41.4240 C.2   217  GLN217      0.2608
    128  OE1       61.3190   47.3690   41.3880 O.2   217  GLN217     -0.2717
    129  NE2       59.9460   45.5870   41.2330 N.am  217  GLN217     -0.0878
    130  N         60.6140   40.4150   39.3970 N.3   220  ALA220     -0.1245
    131  CA        61.8740   39.8370   38.9710 C.3   220  ALA220      0.1562
    132  C         61.7250   38.3200   38.9910 C.2   220  ALA220      0.2260
    133  O         62.3120   37.6460   39.8350 O.2   220  ALA220     -0.2867
    134  CB        62.9990   40.2850   39.9020 C.3   220  ALA220      0.0290
@<TRIPOS>BOND
     1    57    58    1
     2    59    58    1
     3    59    60    2
     4    58    61    1
     5    79    78    2
     6     2     1    1
     7     2     5    1
     8     2     3    1
     9     5     6    1
    10     3     4    2
    11    19    18    2
    12    78    77    1
    13    18    17    1
    14    11    12    1
    15    61    62    1
    16    71    70    2
    17    68    69    1
    18     6     7   ar
    19     6     8   ar
    20    12    13    1
    21    12    15    1
    22    77    76    1
    23    77    80    1
    24    63    62   ar
    25    63    65   ar
    26    62    64   ar
    27    82    84   ar
    28    82    81   ar
    29     7     9   ar
    30    17    16    1
    31    17    20    1
    32    13    14    2
    33    13    16   am
    34    70    69    1
    35    84    85   ar
    36    80    81    1
    37    65    67   ar
    38    69    72    1
    39     8    10   ar
    40    64    66   ar
    41    81    83   ar
    42    74    73    2
    43    72    73    1
    44     9    10   ar
    45    20    21    1
    46    67    66   ar
    47    73    75   am
    48    85    83   ar
    49    85    87   ar
    50    23    21   ar
    51   131   132    1
    52   131   130    1
    53   131   134    1
    54   132   133    2
    55    83    86   ar
    56    21    22   ar
    57    44    43    2
    58    87    89   ar
    59    42    43    1
    60    42    41    1
    61    86    88   ar
    62    43    45   am
    63    40    39    2
    64    90    91    1
    65    89    88   ar
    66   129   127   am
    67    41    39   am
    68    47    48    2
    69    47    46    1
    70   128   127    2
    71   127   126    1
    72    39    38    1
    73    45    46    1
    74   126   125    1
    75    46    49    1
    76    91    92    1
    77   125   122    1
    78    38    37    1
    79   124   123    2
    80   123   122    1
    81   122   121    1
    82    51    53   ar
    83    51    50   ar
    84    49    50    1
    85    92    94   am
    86    92    93    2
    87    37    35   am
    88    53    55   ar
    89    50    52   ar
    90    94    95    1
    91    36    35    2
    92    35    34    1
    93   121   114   am
    94   111   110    2
    95    55    56    1
    96    55    54   ar
    97    52    54   ar
    98    27    26    2
    99    34    33    1
   100   115   114    2
   101   109   110    1
   102   109   108    1
   103   110   112   am
   104   114   113    1
   105    95    98    1
   106    95    96    1
   107    97    96    2
   108    98    99    1
   109    26    33   am
   110    26    25    1
   111   112   113    1
   112   108   104   am
   113   113   116    1
   114   116   117    1
   115    99   100   ar
   116    99   101   ar
   117    24    25    1
   118    25    28    1
   119   107   106    1
   120   104   105    2
   121   104   103    1
   122    28    29    1
   123    29    30    1
   124   117   118    1
   125   102   103    1
   126   103   106    1
   127   118   119    1
   128    30    32   ar
   129    30    31   ar
   130   119   120    1
