@<TRIPOS>MOLECULE
tmp/2e7uA00.pdb
 109 104 0 0 0
SMALL
GASTEIGER

@<TRIPOS>ATOM
      1  N         16.7490   24.9740   55.8930 N.3   116  SER116     -0.1202
      2  CA        16.0150   25.7700   54.9190 C.3   116  SER116      0.2020
      3  C         16.9280   26.4370   53.9070 C.2   116  SER116      0.2619
      4  O         18.1330   26.5530   54.1240 O.2   116  SER116     -0.2717
      5  CB        15.2080   26.8480   55.6380 C.3   116  SER116      0.2103
      6  OG        16.0820   27.7920   56.2420 O.3   116  SER116     -0.2182
      7  N         16.3390   26.8830   52.8050 N.am  117  GLY117     -0.1942
      8  CA        17.1150   27.5530   51.7790 C.3   117  GLY117      0.2014
      9  C         17.7510   28.8050   52.3480 C.2   117  GLY117      0.2639
     10  O         18.8860   29.1320   52.0120 O.2   117  GLY117     -0.2714
     11  N         17.0140   29.5050   53.2100 N.am  118  THR118     -0.1950
     12  CA        17.5110   30.7320   53.8370 C.3   118  THR118      0.1897
     13  C         18.7960   30.4480   54.6120 C.2   118  THR118      0.2313
     14  O         19.7570   31.2150   54.5360 O.2   118  THR118     -0.2863
     15  CB        16.4490   31.3450   54.7960 C.3   118  THR118      0.1794
     16  OG1       15.3710   31.8970   54.0240 O.3   118  THR118     -0.2208
     17  CG2       17.0620   32.4520   55.6570 C.3   118  THR118      0.0378
     18  N         21.8040   29.5110   52.0040 N.3   121  THR121     -0.1218
     19  CA        22.4260   30.6420   51.3230 C.3   121  THR121      0.1862
     20  C         23.1670   31.5460   52.3070 C.2   121  THR121      0.2287
     21  O         24.2410   32.0530   52.0080 O.2   121  THR121     -0.2866
     22  CB        21.3750   31.4500   50.5260 C.3   121  THR121      0.1770
     23  OG1       20.3460   31.9090   51.4070 O.3   121  THR121     -0.2211
     24  CG2       20.7500   30.5760   49.4480 C.3   121  THR121      0.0375
     25  N         15.8770   35.6590   44.5200 N.3   144  TYR144     -0.1227
     26  CA        15.5800   35.5390   45.9440 C.3   144  TYR144      0.1736
     27  C         16.3000   34.3010   46.4520 C.2   144  TYR144      0.2595
     28  O         16.2080   33.2330   45.8440 O.2   144  TYR144     -0.2718
     29  CB        14.0740   35.3920   46.1750 C.3   144  TYR144      0.0548
     30  CG        13.6940   35.3260   47.6390 C.ar  144  TYR144     -0.0200
     31  CD1       13.7930   36.4510   48.4550 C.ar  144  TYR144     -0.0009
     32  CD2       13.2550   34.1330   48.2120 C.ar  144  TYR144     -0.0009
     33  CE1       13.4650   36.3910   49.8100 C.ar  144  TYR144      0.0417
     34  CE2       12.9240   34.0600   49.5680 C.ar  144  TYR144      0.0417
     35  CZ        13.0320   35.1910   50.3590 C.ar  144  TYR144      0.1957
     36  OH        12.7050   35.1290   51.6970 O.3   144  TYR144     -0.2866
     37  N         17.0060   34.4550   47.5660 N.am  145  HIS145     -0.1961
     38  CA        17.7830   33.3680   48.1470 C.3   145  HIS145      0.1787
     39  C         17.4390   33.1100   49.6070 C.2   145  HIS145      0.2621
     40  O         18.0720   32.2810   50.2600 O.2   145  HIS145     -0.2715
     41  CB        19.2690   33.7070   48.0320 C.3   145  HIS145      0.0785
     42  CG        19.6790   34.1290   46.6570 C.ar  145  HIS145      0.0821
     43  ND1       19.6860   33.2620   45.5850 N.ar  145  HIS145     -0.2267
     44  CD2       20.0410   35.3390   46.1660 C.ar  145  HIS145      0.1154
     45  CE1       20.0320   33.9210   44.4930 C.ar  145  HIS145      0.1986
     46  NE2       20.2520   35.1830   44.8180 N.ar  145  HIS145     -0.2212
     47  N         16.4270   33.8050   50.1130 N.am  146  GLY146     -0.1940
     48  CA        16.0500   33.6400   51.5030 C.3   146  GLY146      0.2014
     49  C         16.0050   35.0060   52.1560 C.2   146  GLY146      0.2638
     50  O         16.3960   36.0010   51.5420 O.2   146  GLY146     -0.2714
     51  N         15.5580   35.0650   53.4050 N.am  147  HIS147     -0.1973
     52  CA        15.4390   36.3500   54.0660 C.3   147  HIS147      0.1656
     53  C         16.5460   36.7710   55.0240 C.2   147  HIS147      0.2291
     54  O         16.2780   37.4550   56.0020 O.2   147  HIS147     -0.2864
     55  CB        14.0740   36.4570   54.7580 C.3   147  HIS147      0.0771
     56  CG        13.8590   35.4610   55.8540 C.ar  147  HIS147      0.0820
     57  ND1       13.9650   35.7900   57.1900 N.ar  147  HIS147     -0.2267
     58  CD2       13.5220   34.1490   55.8160 C.ar  147  HIS147      0.1154
     59  CE1       13.7010   34.7250   57.9260 C.ar  147  HIS147      0.1986
     60  NE2       13.4290   33.7160   57.1170 N.ar  147  HIS147     -0.2212
     61  N         20.4030   32.6880   40.7860 N.3   206  GLU206     -0.1245
     62  CA        19.5360   31.5750   40.4190 C.3   206  GLU206      0.1567
     63  C         19.9280   31.2950   38.9620 C.2   206  GLU206      0.2260
     64  O         19.8210   32.1840   38.1100 O.2   206  GLU206     -0.2867
     65  CB        18.0600   31.9820   40.4960 C.3   206  GLU206      0.0388
     66  CG        17.5440   32.2830   41.8990 C.3   206  GLU206      0.1160
     67  CD        16.0560   32.6150   41.9270 C.2   206  GLU206      0.3649
     68  OE1       15.2530   31.8530   41.3470 O.co2 206  GLU206     -0.2457
     69  OE2       15.6810   33.6380   42.5390 O.co2 206  GLU206     -0.2457
     70  N         11.9620   33.2870   41.1050 N.3   211  ASN211     -0.1240
     71  CA        11.2640   34.0960   42.1100 C.3   211  ASN211      0.1653
     72  C         10.8410   35.4780   41.5730 C.2   211  ASN211      0.2266
     73  O         10.2020   36.2710   42.2520 O.2   211  ASN211     -0.2867
     74  CB        12.1900   34.2760   43.3140 C.3   211  ASN211      0.1155
     75  CG        12.2740   32.9810   44.0750 C.2   211  ASN211      0.2627
     76  OD1       11.2900   32.4840   44.6150 O.2   211  ASN211     -0.2716
     77  ND2       13.4750   32.3830   44.0430 N.am  211  ASN211     -0.0877
     78  N         22.6600   29.1620   43.2110 N.3   238  ASP238     -0.1239
     79  CA        21.5750   28.8400   44.1270 C.3   238  ASP238      0.1674
     80  C         20.6230   27.9260   43.3790 C.2   238  ASP238      0.2266
     81  O         19.7750   28.3890   42.6110 O.2   238  ASP238     -0.2867
     82  CB        20.8270   30.0940   44.5760 C.3   238  ASP238      0.1410
     83  CG        19.6880   29.7750   45.5350 C.2   238  ASP238      0.3668
     84  OD1       19.3950   28.5760   45.7390 O.co2 238  ASP238     -0.2456
     85  OD2       19.0820   30.7150   46.0850 O.co2 238  ASP238     -0.2456
     86  N         18.3910   25.8600   44.8150 N.3   240  VAL240     -0.1231
     87  CA        17.3380   25.3870   45.7030 C.3   240  VAL240      0.1692
     88  C         16.1100   24.9930   44.8880 C.2   240  VAL240      0.2591
     89  O         15.4450   24.0050   45.1890 O.2   240  VAL240     -0.2718
     90  CB        16.9470   26.4630   46.7440 C.3   240  VAL240      0.0266
     91  CG1       15.6390   26.0880   47.4250 C.3   240  VAL240      0.0020
     92  CG2       18.0520   26.5950   47.7840 C.3   240  VAL240      0.0020
     93  N         15.8220   25.7610   43.8420 N.am  241  MET241     -0.1979
     94  CA        14.6700   25.4730   42.9960 C.3   241  MET241      0.1605
     95  C         15.0190   24.6680   41.7430 C.2   241  MET241      0.2287
     96  O         14.2650   23.7860   41.3410 O.2   241  MET241     -0.2864
     97  CB        13.9860   26.7800   42.5860 C.3   241  MET241      0.0413
     98  CG        12.6900   26.5870   41.8280 C.3   241  MET241      0.0598
     99  SD        11.9930   28.1630   41.2930 S.3   241  MET241     -0.1393
    100  CE        11.9150   29.0430   42.8400 C.3   241  MET241      0.0692
    101  N         14.4020   22.0680   48.5870 N.3   266  LYS266     -0.1245
    102  CA        13.1500   21.6050   47.9930 C.3   266  LYS266      0.1561
    103  C         13.1480   20.1170   47.6310 C.2   266  LYS266      0.2260
    104  O         12.8750   19.2760   48.4900 O.2   266  LYS266     -0.2867
    105  CB        12.8010   22.4740   46.7750 C.3   266  LYS266      0.0271
    106  CG        12.5060   23.9320   47.1480 C.3   266  LYS266      0.0035
    107  CD        12.0980   24.7590   45.9380 C.3   266  LYS266      0.0206
    108  CE        11.9800   26.2440   46.2700 C.3   266  LYS266      0.1093
    109  NZ        10.9950   26.5200   47.3480 N.3   266  LYS266     -0.1314
@<TRIPOS>BOND
     1    64    63    2
     2    63    62    1
     3    62    65    1
     4    62    61    1
     5    65    66    1
     6    70    71    1
     7    99    98    1
     8    99   100    1
     9    96    95    2
    10    68    67   ar
    11    72    71    1
    12    72    73    2
    13    95    94    1
    14    98    97    1
    15    66    67    1
    16    67    69   ar
    17    71    74    1
    18    97    94    1
    19    81    80    2
    20    94    93    1
    21    78    79    1
    22    74    75    1
    23    80    79    1
    24    93    88   am
    25    77    75   am
    26    75    76    2
    27    79    82    1
    28    45    46   ar
    29    45    43   ar
    30    25    26    1
    31    82    83    1
    32    86    87    1
    33    46    44   ar
    34    88    89    2
    35    88    87    1
    36    83    84   ar
    37    83    85   ar
    38    43    42   ar
    39    87    90    1
    40    28    27    2
    41   107   108    1
    42   107   106    1
    43    26    29    1
    44    26    27    1
    45    44    42   ar
    46    29    30    1
    47   108   109    1
    48    27    37   am
    49    42    41    1
    50    90    91    1
    51    90    92    1
    52   105   106    1
    53   105   102    1
    54    37    38    1
    55   103   102    1
    56   103   104    2
    57    30    32   ar
    58    30    31   ar
    59   102   101    1
    60    41    38    1
    61    38    39    1
    62    32    34   ar
    63    31    33   ar
    64    24    22    1
    65    34    35   ar
    66    39    47   am
    67    39    40    2
    68    33    35   ar
    69    47    48    1
    70    35    36    1
    71    22    19    1
    72    22    23    1
    73    19    18    1
    74    19    20    1
    75    48    49    1
    76    50    49    2
    77     8     9    1
    78     8     7    1
    79    21    20    2
    80    10     9    2
    81    49    51   am
    82     9    11   am
    83     7     3   am
    84    11    12    1
    85    51    52    1
    86    12    13    1
    87    12    15    1
    88     3     4    2
    89     3     2    1
    90    16    15    1
    91    52    55    1
    92    52    53    1
    93    14    13    2
    94    55    56    1
    95    15    17    1
    96     2     5    1
    97     2     1    1
    98    53    54    2
    99     5     6    1
   100    58    56   ar
   101    58    60   ar
   102    56    57   ar
   103    60    59   ar
   104    57    59   ar
