@<TRIPOS>MOLECULE
tmp/2e7zA03.pdb
 130 128 0 0 0
SMALL
GASTEIGER

@<TRIPOS>ATOM
      1  N         51.3040   76.3640   19.4730 N.3    10  ASP10      -0.1225
      2  CA        51.9010   75.0370   19.5670 C.3    10  ASP10       0.1805
      3  C         52.3680   74.3830   18.2560 C.2    10  ASP10       0.2597
      4  O         52.9540   73.3020   18.2870 O.2    10  ASP10      -0.2718
      5  CB        50.9950   74.0900   20.3650 C.3    10  ASP10       0.1424
      6  CG        49.6120   73.9170   19.7630 C.2    10  ASP10       0.3668
      7  OD1       49.1690   74.7300   18.9110 O.co2  10  ASP10      -0.2456
      8  OD2       48.9390   72.9510   20.2090 O.co2  10  ASP10      -0.2456
      9  N         52.1520   75.0330   17.1100 N.am   11  ILE11      -0.1980
     10  CA        52.6580   74.4510   15.8730 C.3    11  ILE11       0.1595
     11  C         54.1760   74.6470   15.7640 C.2    11  ILE11       0.2287
     12  O         54.8370   73.8740   15.0730 O.2    11  ILE11      -0.2864
     13  CB        51.9160   74.9640   14.6080 C.3    11  ILE11       0.0276
     14  CG1       52.1040   74.0010   13.4280 C.3    11  ILE11       0.0022
     15  CG2       52.3610   76.3630   14.2540 C.3    11  ILE11       0.0022
     16  CD1       51.6890   72.5510   13.6880 C.3    11  ILE11       0.0001
     17  N         44.8930   66.2930   21.1730 N.3   139  ILE139     -0.1245
     18  CA        46.0820   65.4890   20.8880 C.3   139  ILE139      0.1561
     19  C         46.3530   64.4030   21.9180 C.2   139  ILE139      0.2260
     20  O         46.6660   63.2880   21.5390 O.2   139  ILE139     -0.2867
     21  CB        47.3660   66.3400   20.5330 C.3   139  ILE139      0.0252
     22  CG1       47.0690   67.2060   19.2990 C.3   139  ILE139      0.0019
     23  CG2       48.5580   65.4140   20.2970 C.3   139  ILE139      0.0019
     24  CD1       48.1220   68.2440   18.9510 C.3   139  ILE139      0.0001
     25  N         50.6470   57.4030   17.8250 N.3   153  TYR153     -0.1241
     26  CA        49.9950   58.5370   17.1910 C.3   153  TYR153      0.1605
     27  C         50.6190   58.8300   15.8270 C.2   153  TYR153      0.2264
     28  O         51.8480   58.8140   15.6860 O.2   153  TYR153     -0.2867
     29  CB        50.0760   59.7330   18.1490 C.3   153  TYR153      0.0534
     30  CG        49.5290   61.0410   17.6510 C.ar  153  TYR153     -0.0201
     31  CD1       48.1470   61.2890   17.5890 C.ar  153  TYR153     -0.0009
     32  CD2       50.4000   62.0610   17.2600 C.ar  153  TYR153     -0.0009
     33  CE1       47.6760   62.5370   17.1460 C.ar  153  TYR153      0.0417
     34  CE2       49.9420   63.2880   16.8160 C.ar  153  TYR153      0.0417
     35  CZ        48.5870   63.5350   16.7600 C.ar  153  TYR153      0.1957
     36  OH        48.1690   64.7660   16.3250 O.3   153  TYR153     -0.2866
     37  N         51.2100   60.9260   12.0340 N.3   155  PHE155     -0.1227
     38  CA        51.5120   62.2430   11.5070 C.3   155  PHE155      0.1736
     39  C         51.3050   62.2490   10.0030 C.2   155  PHE155      0.2595
     40  O         51.9320   61.4650    9.2870 O.2   155  PHE155     -0.2718
     41  CB        52.9600   62.6270   11.8300 C.3   155  PHE155      0.0547
     42  CG        53.2270   62.6910   13.3000 C.ar  155  PHE155     -0.0202
     43  CD1       53.0880   63.8950   13.9820 C.ar  155  PHE155     -0.0042
     44  CD2       53.5770   61.5480   14.0110 C.ar  155  PHE155     -0.0042
     45  CE1       53.2990   63.9570   15.3680 C.ar  155  PHE155     -0.0003
     46  CE2       53.7860   61.5970   15.3880 C.ar  155  PHE155     -0.0003
     47  CZ        53.6390   62.8060   16.0630 C.ar  155  PHE155     -0.0000
     48  N         50.4910   63.1850    9.5210 N.am  156  ALA156     -0.1980
     49  CA        50.2200   63.3350    8.0860 C.3   156  ALA156      0.1597
     50  C         51.2370   64.2280    7.3450 C.2   156  ALA156      0.2287
     51  O         51.6520   65.2750    7.8470 O.2   156  ALA156     -0.2864
     52  CB        48.8060   63.8410    7.8770 C.3   156  ALA156      0.0319
     53  N         48.2900   79.0910   12.7410 N.3   176  TRP176     -0.1241
     54  CA        49.1940   78.0440   12.2870 C.3   176  TRP176      0.1605
     55  C         49.7180   78.3770   10.8880 C.2   176  TRP176      0.2264
     56  O         49.5490   77.6120    9.9390 O.2   176  TRP176     -0.2867
     57  CB        48.4840   76.6880   12.3280 C.3   176  TRP176      0.0550
     58  CG        48.5270   75.9930   13.6710 C.ar  176  TRP176      0.0003
     59  CD1       48.7230   76.5610   14.9120 C.ar  176  TRP176      0.0946
     60  CD2       48.3540   74.5970   13.8950 C.ar  176  TRP176      0.0152
     61  NE1       48.7070   75.5830   15.8870 N.ar  176  TRP176     -0.2442
     62  CE2       48.4700   74.3700   15.2900 C.ar  176  TRP176      0.0810
     63  CE3       48.1250   73.5090   13.0490 C.ar  176  TRP176      0.0012
     64  CZ2       48.3600   73.0870   15.8550 C.ar  176  TRP176      0.0191
     65  CZ3       48.0100   72.2370   13.6100 C.ar  176  TRP176      0.0001
     66  CH2       48.1270   72.0380   14.9990 C.ar  176  TRP176      0.0015
     67  N         51.6680   75.8450    8.7480 N.3   179  GLN179     -0.1245
     68  CA        50.8410   74.8230    8.1280 C.3   179  GLN179      0.1566
     69  C         49.9680   75.4160    7.0060 C.2   179  GLN179      0.2260
     70  O         49.6900   74.7480    6.0040 O.2   179  GLN179     -0.2867
     71  CB        49.9810   74.1060    9.1640 C.3   179  GLN179      0.0367
     72  CG        49.5190   72.7460    8.6780 C.3   179  GLN179      0.0905
     73  CD        48.8040   71.9630    9.7440 C.2   179  GLN179      0.2608
     74  OE1       49.3850   71.0790   10.3760 O.2   179  GLN179     -0.2717
     75  NE2       47.5540   72.3040    9.9770 N.am  179  GLN179     -0.0878
     76  N         45.8240   66.0520   11.6370 N.3   290  TRP290     -0.1241
     77  CA        45.1700   66.1450   12.9250 C.3   290  TRP290      0.1605
     78  C         44.3610   67.4490   12.9910 C.2   290  TRP290      0.2264
     79  O         44.8070   68.4970   12.5060 O.2   290  TRP290     -0.2867
     80  CB        46.1680   66.0720   14.0960 C.3   290  TRP290      0.0550
     81  CG        45.4610   66.4320   15.3660 C.ar  290  TRP290      0.0003
     82  CD1       44.7480   65.5910   16.1810 C.ar  290  TRP290      0.0946
     83  CD2       45.3070   67.7510   15.9160 C.ar  290  TRP290      0.0152
     84  NE1       44.1870   66.3050   17.2210 N.ar  290  TRP290     -0.2442
     85  CE2       44.5060   67.6300   17.0720 C.ar  290  TRP290      0.0810
     86  CE3       45.7750   69.0260   15.5450 C.ar  290  TRP290      0.0012
     87  CZ2       44.1670   68.7260   17.8640 C.ar  290  TRP290      0.0191
     88  CZ3       45.4330   70.1190   16.3340 C.ar  290  TRP290      0.0001
     89  CH2       44.6410   69.9610   17.4800 C.ar  290  TRP290      0.0015
     90  N         52.8320   61.7820   23.2400 N.3   384  MET384     -0.1245
     91  CA        52.2700   63.1550   23.2360 C.3   384  MET384      0.1570
     92  C         51.9330   63.5890   24.6590 C.2   384  MET384      0.2261
     93  O         52.6960   64.3620   25.2500 O.2   384  MET384     -0.2867
     94  CB        51.0690   63.2910   22.2610 C.3   384  MET384      0.0387
     95  CG        51.2820   62.6680   20.8540 C.3   384  MET384      0.0595
     96  SD        52.8010   63.1870   20.0060 S.3   384  MET384     -0.1393
     97  CE        52.2320   64.7610   19.3080 C.3   384  MET384      0.0692
     98  N         56.7210   66.7510   22.5850 N.3   469  TRP469     -0.1241
     99  CA        55.6490   65.7690   22.5810 C.3   469  TRP469      0.1605
    100  C         56.2930   64.5120   22.0300 C.2   469  TRP469      0.2264
    101  O         56.6630   64.4550   20.8480 O.2   469  TRP469     -0.2867
    102  CB        54.4970   66.2150   21.6790 C.3   469  TRP469      0.0550
    103  CG        53.5550   67.2380   22.2940 C.ar  469  TRP469      0.0003
    104  CD1       53.3390   67.4780   23.6190 C.ar  469  TRP469      0.0946
    105  CD2       52.6730   68.1070   21.5770 C.ar  469  TRP469      0.0152
    106  NE1       52.3730   68.4470   23.7700 N.ar  469  TRP469     -0.2442
    107  CE2       51.9570   68.8570   22.5300 C.ar  469  TRP469      0.0810
    108  CE3       52.4390   68.3440   20.2140 C.ar  469  TRP469      0.0012
    109  CZ2       51.0220   69.8180   22.1680 C.ar  469  TRP469      0.0191
    110  CZ3       51.5120   69.3030   19.8640 C.ar  469  TRP469      0.0001
    111  CH2       50.8120   70.0210   20.8270 C.ar  469  TRP469      0.0015
    112  N         56.7020   62.7670   18.0740 N.3   472  ILE472     -0.1245
    113  CA        57.0300   63.5420   16.8810 C.3   472  ILE472      0.1561
    114  C         58.3860   63.0550   16.3540 C.2   472  ILE472      0.2260
    115  O         59.3420   63.0020   17.1080 O.2   472  ILE472     -0.2867
    116  CB        57.0960   65.0450   17.1860 C.3   472  ILE472      0.0252
    117  CG1       55.7670   65.5480   17.7480 C.3   472  ILE472      0.0019
    118  CG2       57.4570   65.8390   15.9100 C.3   472  ILE472      0.0019
    119  CD1       55.8040   67.0270   18.1820 C.3   472  ILE472      0.0001
    120  N         60.8340   64.1690   14.6600 N.3   474  PHE474     -0.1241
    121  CA        61.9390   65.0780   14.4070 C.3   474  PHE474      0.1605
    122  C         61.9760   66.0670   15.5410 C.2   474  PHE474      0.2264
    123  O         61.0000   66.2140   16.2900 O.2   474  PHE474     -0.2867
    124  CB        61.7410   65.8400   13.0870 C.3   474  PHE474      0.0534
    125  CG        60.5470   66.7510   13.0940 C.ar  474  PHE474     -0.0203
    126  CD1       59.2920   66.2730   12.7430 C.ar  474  PHE474     -0.0042
    127  CD2       60.6720   68.0910   13.4490 C.ar  474  PHE474     -0.0042
    128  CE1       58.1940   67.1160   12.7590 C.ar  474  PHE474     -0.0003
    129  CE2       59.5680   68.9340   13.4810 C.ar  474  PHE474     -0.0003
    130  CZ        58.3230   68.4370   13.1300 C.ar  474  PHE474     -0.0000
@<TRIPOS>BOND
     1    70    69    2
     2    69    68    1
     3    50    51    2
     4    50    49    1
     5    52    49    1
     6    49    48    1
     7    68    67    1
     8    68    71    1
     9    72    71    1
    10    72    73    1
    11    40    39    2
    12    48    39   am
    13    73    75   am
    14    73    74    2
    15    56    55    2
    16    39    38    1
    17    55    54    1
    18    38    41    1
    19    38    37    1
    20    76    77    1
    21    41    42    1
    22    54    57    1
    23    54    53    1
    24    57    58    1
    25    79    78    2
    26   126   128   ar
    27   126   125   ar
    28   128   130   ar
    29    77    78    1
    30    77    80    1
    31    63    65   ar
    32    63    60   ar
    33   124   125    1
    34   124   121    1
    35   125   127   ar
    36   130   129   ar
    37    42    43   ar
    38    42    44   ar
    39    14    16    1
    40    14    13    1
    41   127   129   ar
    42    65    66   ar
    43    58    60   ar
    44    58    59   ar
    45    60    62   ar
    46    43    45   ar
    47    44    46   ar
    48    80    81    1
    49    15    13    1
    50   121   120    1
    51   121   122    1
    52    13    10    1
    53    59    61   ar
    54    66    64   ar
    55    12    11    2
    56    62    64   ar
    57    62    61   ar
    58    81    83   ar
    59    81    82   ar
    60    45    47   ar
    61    46    47   ar
    62   122   123    2
    63    86    83   ar
    64    86    88   ar
    65    28    27    2
    66    11    10    1
    67    27    26    1
    68    10     9    1
    69   118   116    1
    70    83    85   ar
    71    82    84   ar
    72    36    35    1
    73    88    89   ar
    74   114   113    1
    75   114   115    2
    76    35    34   ar
    77    35    33   ar
    78    34    32   ar
    79   113   116    1
    80   113   112    1
    81    85    84   ar
    82    85    87   ar
    83     9     3   am
    84    33    31   ar
    85   116   117    1
    86    26    25    1
    87    26    29    1
    88    32    30   ar
    89    89    87   ar
    90    31    30   ar
    91    30    29    1
    92   117   119    1
    93     3     4    2
    94     3     2    1
    95     7     6   ar
    96    24    22    1
    97    22    21    1
    98    97    96    1
    99     1     2    1
   100     2     5    1
   101     6     8   ar
   102     6     5    1
   103   110   108   ar
   104   110   111   ar
   105    96    95    1
   106   108   105   ar
   107    23    21    1
   108    21    18    1
   109   111   109   ar
   110   101   100    2
   111    95    94    1
   112    18    17    1
   113    18    19    1
   114    20    19    2
   115   105   103   ar
   116   105   107   ar
   117   102   103    1
   118   102    99    1
   119   100    99    1
   120   109   107   ar
   121    94    91    1
   122   103   104   ar
   123   107   106   ar
   124    99    98    1
   125    91    90    1
   126    91    92    1
   127   104   106   ar
   128    92    93    2
