@<TRIPOS>MOLECULE
tmp/2e7zA02.pdb
 94 89 0 0 0
SMALL
GASTEIGER

@<TRIPOS>ATOM
      1  N         52.1520   75.0330   17.1100 N.3    11  ILE11      -0.1231
      2  CA        52.6580   74.4510   15.8730 C.3    11  ILE11       0.1692
      3  C         54.1760   74.6470   15.7640 C.2    11  ILE11       0.2592
      4  O         54.8370   73.8740   15.0730 O.2    11  ILE11      -0.2718
      5  CB        51.9160   74.9640   14.6080 C.3    11  ILE11       0.0266
      6  CG1       52.1040   74.0010   13.4280 C.3    11  ILE11       0.0019
      7  CG2       52.3610   76.3630   14.2540 C.3    11  ILE11       0.0020
      8  CD1       51.6890   72.5510   13.6880 C.3    11  ILE11       0.0001
      9  N         54.7080   75.6590   16.4620 N.am   12  ASN12      -0.1960
     10  CA        56.1570   75.8110   16.6480 C.3    12  ASN12       0.1819
     11  C         56.9490   76.0650   15.3530 C.2    12  ASN12       0.2621
     12  O         58.0080   75.4480   15.1140 O.2    12  ASN12      -0.2715
     13  CB        56.7330   74.5820   17.3790 C.3    12  ASN12       0.1195
     14  CG        56.3500   74.4960   18.8720 C.2    12  ASN12       0.2630
     15  OD1       56.6740   73.4910   19.4930 O.2    12  ASN12      -0.2716
     16  ND2       55.7240   75.5300   19.4510 N.am   12  ASN12      -0.0877
     17  N         56.4480   76.9930   14.5350 N.am   13  CYS13      -0.1968
     18  CA        57.2360   77.5220   13.4220 C.3    13  CYS13       0.1712
     19  C         58.6110   77.9360   13.9300 C.2    13  CYS13       0.2296
     20  O         58.7290   78.5240   15.0050 O.2    13  CYS13      -0.2864
     21  CB        56.6040   78.8030   12.8860 C.3    13  CYS13       0.0983
     22  SG        54.8520   78.6530   12.4280 S.3    13  CYS13      -0.0798
     23  N         61.8290   72.1970    7.9330 N.3    36  THR36      -0.1203
     24  CA        60.4270   71.8880    8.2590 C.3    36  THR36       0.1994
     25  C         59.4920   73.0720    8.1360 C.2    36  THR36       0.2619
     26  O         58.3350   72.8920    7.7580 O.2    36  THR36      -0.2717
     27  CB        60.2370   71.2770    9.6700 C.3    36  THR36       0.1784
     28  OG1       60.3710   72.3040   10.6610 O.3    36  THR36      -0.2211
     29  CG2       61.2230   70.1180    9.9470 C.3    36  THR36       0.0376
     30  N         59.9720   74.2730    8.4530 N.am   37  THR37      -0.1939
     31  CA        59.1390   75.4750    8.4160 C.3    37  THR37       0.2013
     32  C         59.2860   76.1610    7.0540 C.2    37  THR37       0.2484
     33  O         60.3590   76.6560    6.7220 O.2    37  THR37      -0.2729
     34  CB        59.5370   76.4530    9.5430 C.3    37  THR37       0.1807
     35  OG1       59.3880   75.7910   10.8120 O.3    37  THR37      -0.2208
     36  CG2       58.6690   77.6950    9.5140 C.3    37  THR37       0.0379
     37  N         58.2020   76.1950    6.2610 N.am   38  PRO38      -0.2726
     38  CA        58.2760   76.8360    4.9360 C.3    38  PRO38       0.1402
     39  C         58.4830   78.3460    5.0240 C.2    38  PRO38       0.2269
     40  O         58.2570   78.9340    6.0800 O.2    38  PRO38      -0.2865
     41  CB        56.9080   76.5410    4.3020 C.3    38  PRO38       0.0296
     42  CG        56.1710   75.6900    5.2500 C.3    38  PRO38       0.0237
     43  CD        56.8580   75.6780    6.5710 C.3    38  PRO38       0.0939
     44  N         52.6430   78.4490    9.4380 N.3   178  SER178     -0.1202
     45  CA        53.4960   77.4540    8.7850 C.3   178  SER178      0.2020
     46  C         52.6850   76.3750    8.0750 C.2   178  SER178      0.2618
     47  O         52.9670   76.0470    6.9190 O.2   178  SER178     -0.2717
     48  CB        54.4910   76.8310    9.7720 C.3   178  SER178      0.2103
     49  OG        53.8200   76.3120   10.9100 O.3   178  SER178     -0.2182
     50  N         51.6680   75.8450    8.7480 N.am  179  GLN179     -0.1979
     51  CA        50.8410   74.8230    8.1280 C.3   179  GLN179      0.1601
     52  C         49.9680   75.4160    7.0060 C.2   179  GLN179      0.2287
     53  O         49.6900   74.7480    6.0040 O.2   179  GLN179     -0.2864
     54  CB        49.9810   74.1060    9.1640 C.3   179  GLN179      0.0394
     55  CG        49.5190   72.7460    8.6780 C.3   179  GLN179      0.0908
     56  CD        48.8040   71.9630    9.7440 C.2   179  GLN179      0.2608
     57  OE1       49.3850   71.0790   10.3760 O.2   179  GLN179     -0.2717
     58  NE2       47.5540   72.3040    9.9770 N.am  179  GLN179     -0.0878
     59  N         52.3000   75.2970    4.2370 N.3   182  ASP182     -0.1239
     60  CA        52.3880   73.9020    3.8160 C.3   182  ASP182      0.1674
     61  C         51.2160   73.5270    2.9120 C.2   182  ASP182      0.2266
     62  O         51.4020   72.9060    1.8730 O.2   182  ASP182     -0.2867
     63  CB        52.4000   72.9730    5.0310 C.3   182  ASP182      0.1410
     64  CG        53.7490   72.9050    5.7060 C.2   182  ASP182      0.3668
     65  OD1       54.7840   73.0880    5.0310 O.co2 182  ASP182     -0.2456
     66  OD2       53.7690   72.6450    6.9220 O.co2 182  ASP182     -0.2456
     67  N         63.9690   69.7740   20.8670 N.3   466  GLN466     -0.1245
     68  CA        62.7040   69.0800   20.5930 C.3   466  GLN466      0.1566
     69  C         62.9900   67.6330   20.2020 C.2   466  GLN466      0.2260
     70  O         64.1340   67.2880   19.9120 O.2   466  GLN466     -0.2867
     71  CB        61.9860   69.7790   19.4420 C.3   466  GLN466      0.0367
     72  CG        61.5240   71.1680   19.8510 C.3   466  GLN466      0.0905
     73  CD        60.5340   71.7790   18.8830 C.2   466  GLN466      0.2608
     74  OE1       60.7180   71.6850   17.6780 O.2   466  GLN466     -0.2717
     75  NE2       59.4790   72.4220   19.4140 N.am  466  GLN466     -0.0878
     76  N         60.8340   64.1690   14.6600 N.3   474  PHE474     -0.1241
     77  CA        61.9390   65.0780   14.4070 C.3   474  PHE474      0.1605
     78  C         61.9760   66.0670   15.5410 C.2   474  PHE474      0.2264
     79  O         61.0000   66.2140   16.2900 O.2   474  PHE474     -0.2867
     80  CB        61.7410   65.8400   13.0870 C.3   474  PHE474      0.0534
     81  CG        60.5470   66.7510   13.0940 C.ar  474  PHE474     -0.0203
     82  CD1       59.2920   66.2730   12.7430 C.ar  474  PHE474     -0.0042
     83  CD2       60.6720   68.0910   13.4490 C.ar  474  PHE474     -0.0042
     84  CE1       58.1940   67.1160   12.7590 C.ar  474  PHE474     -0.0003
     85  CE2       59.5680   68.9340   13.4810 C.ar  474  PHE474     -0.0003
     86  CZ        58.3230   68.4370   13.1300 C.ar  474  PHE474     -0.0000
     87  N         63.2330   70.2630   16.0790 N.3   476  ASN476     -0.1240
     88  CA        63.8910   71.5310   15.7290 C.3   476  ASN476      0.1653
     89  C         64.5950   72.1330   16.9340 C.2   476  ASN476      0.2266
     90  O         64.0300   72.2000   18.0190 O.2   476  ASN476     -0.2867
     91  CB        62.8710   72.5440   15.1900 C.3   476  ASN476      0.1155
     92  CG        62.2950   72.1330   13.8420 C.2   476  ASN476      0.2627
     93  OD1       61.0920   72.2480   13.5980 O.2   476  ASN476     -0.2716
     94  ND2       63.1430   71.6150   12.9830 N.am  476  ASN476     -0.0877
@<TRIPOS>BOND
     1    62    61    2
     2    61    60    1
     3    60    59    1
     4    60    63    1
     5    41    38    1
     6    41    42    1
     7    38    39    1
     8    38    37    1
     9    39    40    2
    10    65    64   ar
    11    63    64    1
    12    42    43    1
    13    64    66   ar
    14    53    52    2
    15    37    43    1
    16    37    32   am
    17    33    32    2
    18    47    46    2
    19    52    51    1
    20    32    31    1
    21    26    25    2
    22    23    24    1
    23    46    50   am
    24    46    45    1
    25    51    50    1
    26    51    54    1
    27    25    24    1
    28    25    30   am
    29    24    27    1
    30    31    30    1
    31    31    34    1
    32    55    54    1
    33    55    56    1
    34    45    44    1
    35    45    48    1
    36    36    34    1
    37    34    35    1
    38    27    29    1
    39    27    28    1
    40    56    58   am
    41    56    57    2
    42    48    49    1
    43    22    21    1
    44    82    84   ar
    45    82    81   ar
    46    84    86   ar
    47    21    18    1
    48    94    92   am
    49    80    81    1
    50    80    77    1
    51    81    83   ar
    52    86    85   ar
    53    18    19    1
    54    18    17    1
    55     6     8    1
    56     6     5    1
    57    83    85   ar
    58    93    92    2
    59    92    91    1
    60    19    20    2
    61     7     5    1
    62    77    76    1
    63    77    78    1
    64    17    11   am
    65     5     2    1
    66     4     3    2
    67    12    11    2
    68    91    88    1
    69    11    10    1
    70    78    79    2
    71    88    87    1
    72    88    89    1
    73     3     2    1
    74     3     9   am
    75     2     1    1
    76     9    10    1
    77    10    13    1
    78    89    90    2
    79    13    14    1
    80    74    73    2
    81    14    16   am
    82    14    15    2
    83    73    75   am
    84    73    72    1
    85    71    72    1
    86    71    68    1
    87    70    69    2
    88    69    68    1
    89    68    67    1
