@<TRIPOS>MOLECULE
tmp/2e82D01.pdb
 123 116 0 0 0
SMALL
GASTEIGER

@<TRIPOS>ATOM
      1  N         61.3080  -65.7110  -11.9640 N.3    49  ALA49      -0.1245
      2  CA        61.5270  -64.2800  -12.1480 C.3    49  ALA49       0.1562
      3  C         62.1070  -63.9960  -13.5140 C.2    49  ALA49       0.2260
      4  O         61.8620  -62.9370  -14.0760 O.2    49  ALA49      -0.2867
      5  CB        62.4450  -63.7190  -11.0700 C.3    49  ALA49       0.0290
      6  N         65.4560  -64.0030  -14.2140 N.3    51  LEU51      -0.1245
      7  CA        66.7710  -63.3680  -14.1400 C.3    51  LEU51       0.1561
      8  C         67.8260  -64.2640  -14.7410 C.2    51  LEU51       0.2260
      9  O         67.9320  -65.4440  -14.3990 O.2    51  LEU51      -0.2867
     10  CB        67.1450  -63.0320  -12.6990 C.3    51  LEU51       0.0270
     11  CG        68.5370  -62.4030  -12.5040 C.3    51  LEU51       0.0019
     12  CD1       68.8060  -61.2530  -13.4770 C.3    51  LEU51       0.0001
     13  CD2       68.7240  -61.9550  -11.0710 C.3    51  LEU51       0.0001
     14  N         71.2480  -65.6830  -14.9180 N.3    53  GLN53      -0.1231
     15  CA        72.4270  -65.9220  -14.1090 C.3    53  GLN53       0.1683
     16  C         72.5720  -67.4200  -13.8380 C.2    53  GLN53       0.2434
     17  O         71.7260  -68.0070  -13.1320 O.2    53  GLN53      -0.2733
     18  CB        72.3760  -65.1480  -12.7910 C.3    53  GLN53       0.0380
     19  CG        73.6320  -65.3170  -11.9260 C.3    53  GLN53       0.0905
     20  CD        73.8040  -64.2240  -10.8950 C.2    53  GLN53       0.2608
     21  OE1       73.7480  -63.0410  -11.2200 O.2    53  GLN53      -0.2717
     22  NE2       74.0300  -64.6150   -9.6450 N.am   53  GLN53      -0.0878
     23  N         73.6500  -68.0370  -14.3800 N.am   54  PRO54      -0.2729
     24  CA        73.9320  -69.4320  -14.1010 C.3    54  PRO54       0.1401
     25  C         74.5580  -69.5390  -12.7180 C.2    54  PRO54       0.2269
     26  O         74.5170  -68.5710  -11.9450 O.2    54  PRO54      -0.2865
     27  CB        74.9570  -69.8210  -15.1810 C.3    54  PRO54       0.0296
     28  CG        75.1360  -68.6160  -16.0470 C.3    54  PRO54       0.0237
     29  CD        74.6830  -67.4510  -15.2460 C.3    54  PRO54       0.0939
     30  N         77.4890  -69.7450   -9.8220 N.3    56  LEU56      -0.1245
     31  CA        78.6670  -68.9060   -9.5700 C.3    56  LEU56       0.1561
     32  C         79.9500  -69.5760  -10.0900 C.2    56  LEU56       0.2260
     33  O         80.7620  -68.9490  -10.7970 O.2    56  LEU56      -0.2867
     34  CB        78.7800  -68.5620   -8.0790 C.3    56  LEU56       0.0270
     35  CG        77.4570  -68.1470   -7.4290 C.3    56  LEU56       0.0019
     36  CD1       77.5010  -68.2580   -5.9150 C.3    56  LEU56       0.0001
     37  CD2       77.0410  -66.7400   -7.8750 C.3    56  LEU56       0.0001
     38  N         70.7690  -60.0610   -5.1530 N.3   215  LEU215     -0.1231
     39  CA        70.9020  -61.4770   -4.7600 C.3   215  LEU215      0.1693
     40  C         71.9490  -61.6800   -3.6630 C.2   215  LEU215      0.2593
     41  O         73.1250  -61.3610   -3.8440 O.2   215  LEU215     -0.2718
     42  CB        71.3200  -62.3380   -5.9490 C.3   215  LEU215      0.0284
     43  CG        70.5770  -62.2120   -7.2800 C.3   215  LEU215      0.0019
     44  CD1       71.4220  -62.7420   -8.4140 C.3   215  LEU215      0.0001
     45  CD2       69.2660  -62.9520   -7.2330 C.3   215  LEU215      0.0001
     46  N         71.5300  -62.2420   -2.5380 N.am  216  THR216     -0.1939
     47  CA        72.4520  -62.5400   -1.4470 C.3   216  THR216      0.2028
     48  C         72.9400  -63.9980   -1.4880 C.2   216  THR216      0.2642
     49  O         72.2170  -64.9070   -1.9400 O.2   216  THR216     -0.2714
     50  CB        71.8110  -62.2920   -0.0710 C.3   216  THR216      0.1808
     51  OG1       70.8120  -63.2740    0.1700 O.3   216  THR216     -0.2208
     52  CG2       71.1680  -60.9420    0.0020 C.3   216  THR216      0.0379
     53  N         74.1680  -64.2130   -1.0100 N.am  217  HIS217     -0.1973
     54  CA        74.7010  -65.5650   -0.8430 C.3   217  HIS217      0.1656
     55  C         75.1570  -65.8920    0.5650 C.2   217  HIS217      0.2291
     56  O         76.1880  -65.3970    1.0400 O.2   217  HIS217     -0.2864
     57  CB        75.8230  -65.8100   -1.8240 C.3   217  HIS217      0.0771
     58  CG        75.4460  -65.4760   -3.2220 C.ar  217  HIS217      0.0820
     59  ND1       75.0650  -66.4340   -4.1330 N.ar  217  HIS217     -0.2267
     60  CD2       75.3490  -64.2860   -3.8580 C.ar  217  HIS217      0.1154
     61  CE1       74.7800  -65.8520   -5.2820 C.ar  217  HIS217      0.1986
     62  NE2       74.9430  -64.5490   -5.1420 N.ar  217  HIS217     -0.2212
     63  N         72.3720  -72.6790   -1.6260 N.3   223  ILE223     -0.1231
     64  CA        71.9170  -72.2630   -2.9670 C.3   223  ILE223      0.1692
     65  C         70.4170  -71.9360   -2.9770 C.2   223  ILE223      0.2592
     66  O         69.5900  -72.7400   -2.5060 O.2   223  ILE223     -0.2718
     67  CB        72.2890  -73.3080   -4.1090 C.3   223  ILE223      0.0266
     68  CG1       71.7210  -72.9010   -5.4750 C.3   223  ILE223      0.0019
     69  CG2       71.8050  -74.7390   -3.7840 C.3   223  ILE223      0.0020
     70  CD1       72.4090  -71.7240   -6.1450 C.3   223  ILE223      0.0001
     71  N         70.1040  -70.7360   -3.4810 N.am  224  TYR224     -0.1976
     72  CA        68.7320  -70.2270   -3.6590 C.3   224  TYR224      0.1639
     73  C         67.9490  -70.1280   -2.3460 C.2   224  TYR224      0.2290
     74  O         66.7310  -70.0000   -2.3620 O.2   224  TYR224     -0.2864
     75  CB        67.9300  -71.0610   -4.6880 C.3   224  TYR224      0.0560
     76  CG        68.5420  -71.2220   -6.0770 C.ar  224  TYR224     -0.0198
     77  CD1       69.1050  -70.1380   -6.7550 C.ar  224  TYR224     -0.0009
     78  CD2       68.5180  -72.4610   -6.7310 C.ar  224  TYR224     -0.0009
     79  CE1       69.6570  -70.2900   -8.0390 C.ar  224  TYR224      0.0417
     80  CE2       69.0620  -72.6230   -8.0180 C.ar  224  TYR224      0.0417
     81  CZ        69.6320  -71.5310   -8.6640 C.ar  224  TYR224      0.1957
     82  OH        70.1880  -71.6730   -9.9210 O.3   224  TYR224     -0.2866
     83  N         68.9230  -67.9730    0.1500 N.3   226  SER226     -0.1217
     84  CA        69.2670  -66.6580    0.6670 C.3   226  SER226      0.1889
     85  C         68.3030  -65.6020    0.0520 C.2   226  SER226      0.2288
     86  O         67.8880  -65.7550   -1.0980 O.2   226  SER226     -0.2866
     87  CB        70.7290  -66.3890    0.3100 C.3   226  SER226      0.2089
     88  OG        71.2610  -65.3200    1.0520 O.3   226  SER226     -0.2183
     89  N         66.3880  -62.9320   -1.9720 N.3   228  TYR228     -0.1241
     90  CA        66.5990  -62.2240   -3.2290 C.3   228  TYR228      0.1605
     91  C         65.4090  -61.3550   -3.6620 C.2   228  TYR228      0.2264
     92  O         64.2540  -61.6740   -3.3830 O.2   228  TYR228     -0.2867
     93  CB        67.0720  -63.1560   -4.3420 C.3   228  TYR228      0.0534
     94  CG        66.1020  -64.2480   -4.7410 C.ar  228  TYR228     -0.0201
     95  CD1       65.1660  -64.0450   -5.7740 C.ar  228  TYR228     -0.0009
     96  CD2       66.1380  -65.4950   -4.1240 C.ar  228  TYR228     -0.0009
     97  CE1       64.2900  -65.0500   -6.1640 C.ar  228  TYR228      0.0417
     98  CE2       65.2780  -66.5010   -4.5100 C.ar  228  TYR228      0.0417
     99  CZ        64.3500  -66.2770   -5.5180 C.ar  228  TYR228      0.1957
    100  OH        63.4930  -67.2980   -5.8720 O.3   228  TYR228     -0.2866
    101  N         64.0790  -59.3800   -7.1490 N.3   230  ILE230     -0.1245
    102  CA        64.2010  -59.2090   -8.6130 C.3   230  ILE230      0.1561
    103  C         63.0430  -58.4310   -9.2590 C.2   230  ILE230      0.2260
    104  O         61.9470  -58.9720   -9.3930 O.2   230  ILE230     -0.2867
    105  CB        64.3430  -60.5720   -9.3340 C.3   230  ILE230      0.0252
    106  CG1       65.6790  -61.2220   -9.0020 C.3   230  ILE230      0.0019
    107  CG2       64.2530  -60.3990  -10.8210 C.3   230  ILE230      0.0019
    108  CD1       65.5890  -62.7090   -8.9690 C.3   230  ILE230      0.0001
    109  N         62.0640  -76.1890   -9.0270 N.3   283  ARG283     -0.1245
    110  CA        63.2510  -76.1980   -9.8600 C.3   283  ARG283      0.1563
    111  C         63.6270  -77.6490  -10.1440 C.2   283  ARG283      0.2260
    112  O         63.8460  -78.4030   -9.2090 O.2   283  ARG283     -0.2867
    113  CB        64.3990  -75.4900   -9.1390 C.3   283  ARG283      0.0307
    114  CG        64.2610  -73.9820   -9.0470 C.3   283  ARG283      0.0489
    115  CD        65.3040  -73.4310   -8.1040 C.3   283  ARG283      0.2205
    116  NE        64.9190  -72.1650   -7.4500 N.pl3 283  ARG283     -0.0865
    117  CZ        64.4180  -72.0610   -6.2190 C.cat 283  ARG283      0.5346
    118  NH1       64.1870  -73.1420   -5.4990 N.pl3 283  ARG283      0.1354
    119  NH2       64.1250  -70.8670   -5.7090 N.pl3 283  ARG283      0.1354
    120  N         67.5710  -74.0970  -11.2110 N.3   313  GLY313     -0.1225
    121  CA        67.1270  -72.7000  -11.1570 C.3   313  GLY313      0.1811
    122  C         67.6340  -71.8010  -12.2770 C.2   313  GLY313      0.2280
    123  O         67.6410  -70.5790  -12.1430 O.2   313  GLY313     -0.2866
@<TRIPOS>BOND
     1    28    29    1
     2    28    27    1
     3    29    23    1
     4    27    24    1
     5    14    15    1
     6     8     9    2
     7     8     7    1
     8    23    24    1
     9    23    16   am
    10     6     7    1
    11     7    10    1
    12    15    16    1
    13    15    18    1
    14    24    25    1
    15     4     3    2
    16    16    17    2
    17     3     2    1
    18    12    11    1
    19    18    19    1
    20    25    26    2
    21    10    11    1
    22    11    13    1
    23   122   123    2
    24   122   121    1
    25     2     1    1
    26     2     5    1
    27    19    20    1
    28    21    20    2
    29   120   121    1
    30    20    22   am
    31   107   105    1
    32    33    32    2
    33   111   110    1
    34   111   112    2
    35    32    31    1
    36    82    81    1
    37   110   113    1
    38   110   109    1
    39    30    31    1
    40    31    34    1
    41   104   103    2
    42   105   106    1
    43   105   102    1
    44   103   102    1
    45   113   114    1
    46   114   115    1
    47   106   108    1
    48    81    79   ar
    49    81    80   ar
    50   102   101    1
    51    44    43    1
    52   115   116    1
    53    34    35    1
    54    79    77   ar
    55    80    78   ar
    56    37    35    1
    57   116   117    2
    58    35    36    1
    59    43    45    1
    60    43    42    1
    61    77    76   ar
    62    78    76   ar
    63   117   119    1
    64   117   118    1
    65    97    95   ar
    66    97    99   ar
    67    70    68    1
    68    76    75    1
    69    42    39    1
    70   100    99    1
    71    95    94   ar
    72    99    98   ar
    73    68    67    1
    74    61    62   ar
    75    61    59   ar
    76    38    39    1
    77    62    60   ar
    78    39    40    1
    79    94    93    1
    80    94    96   ar
    81    75    72    1
    82    98    96   ar
    83    93    90    1
    84    59    58   ar
    85    67    69    1
    86    67    64    1
    87    60    58   ar
    88    41    40    2
    89    40    46   am
    90    91    92    2
    91    91    90    1
    92    72    71    1
    93    72    73    1
    94    71    65   am
    95    90    89    1
    96    58    57    1
    97    65    64    1
    98    65    66    2
    99    64    63    1
   100    46    47    1
   101    74    73    2
   102    49    48    2
   103    57    54    1
   104    48    47    1
   105    48    53   am
   106    47    50    1
   107    86    85    2
   108    53    54    1
   109    54    55    1
   110    50    52    1
   111    50    51    1
   112    85    84    1
   113    83    84    1
   114    87    84    1
   115    87    88    1
   116    55    56    2
