@<TRIPOS>MOLECULE
tmp/2e84A08.pdb
 188 185 0 0 0
SMALL
GASTEIGER

@<TRIPOS>ATOM
      1  N         27.0510   47.8720   44.9160 N.3    17  ILE17      -0.1231
      2  CA        26.6040   49.2380   45.0790 C.3    17  ILE17       0.1692
      3  C         25.3070   49.2500   45.8830 C.2    17  ILE17       0.2593
      4  O         24.2790   48.7310   45.4500 O.2    17  ILE17      -0.2718
      5  CB        26.4020   49.9260   43.7120 C.3    17  ILE17       0.0266
      6  CG1       27.6320   49.6960   42.8320 C.3    17  ILE17       0.0019
      7  CG2       26.2340   51.4170   43.9110 C.3    17  ILE17       0.0020
      8  CD1       27.5080   50.2700   41.4390 C.3    17  ILE17       0.0001
      9  N         25.3870   49.8310   47.0730 N.am   18  GLY18      -0.1942
     10  CA        24.2310   49.9340   47.9410 C.3    18  GLY18       0.2014
     11  C         24.2920   51.2410   48.7050 C.2    18  GLY18       0.2639
     12  O         23.6530   51.3930   49.7430 O.2    18  GLY18      -0.2714
     13  N         25.0650   52.1880   48.1830 N.am   19  VAL19      -0.1963
     14  CA        25.2790   53.4680   48.8450 C.3    19  VAL19       0.1727
     15  C         23.9710   54.1690   49.2070 C.2    19  VAL19       0.2616
     16  O         23.9320   54.9650   50.1440 O.2    19  VAL19      -0.2715
     17  CB        26.1180   54.4110   47.9560 C.3    19  VAL19       0.0290
     18  CG1       26.4070   55.7220   48.6920 C.3    19  VAL19       0.0023
     19  CG2       27.4110   53.7200   47.5590 C.3    19  VAL19       0.0023
     20  N         22.9040   53.8720   48.4640 N.am   20  MET20      -0.1977
     21  CA        21.6060   54.5100   48.6910 C.3    20  MET20       0.1605
     22  C         21.0530   54.1870   50.0770 C.2    20  MET20       0.2287
     23  O         20.2960   54.9730   50.6450 O.2    20  MET20      -0.2864
     24  CB        20.5890   54.0710   47.6270 C.3    20  MET20       0.0413
     25  CG        20.8630   54.5920   46.2180 C.3    20  MET20       0.0598
     26  SD        20.3190   56.2860   45.9240 S.3    20  MET20      -0.1393
     27  CE        18.5670   56.1170   46.1340 C.3    20  MET20       0.0692
     28  N         15.7270   52.4820   53.6100 N.3    25  ASN25      -0.1225
     29  CA        15.5830   51.0880   53.2090 C.3    25  ASN25       0.1785
     30  C         15.5210   50.9920   51.6840 C.2    25  ASN25       0.2597
     31  O         14.9940   51.8850   51.0230 O.2    25  ASN25      -0.2718
     32  CB        14.3060   50.5010   53.8240 C.3    25  ASN25       0.1169
     33  CG        14.3550   48.9870   53.9500 C.2    25  ASN25       0.2627
     34  OD1       14.1600   48.4360   55.0360 O.2    25  ASN25      -0.2716
     35  ND2       14.6160   48.3070   52.8390 N.am   25  ASN25      -0.0877
     36  N         16.0620   49.9120   51.1280 N.am   26  LEU26      -0.1966
     37  CA        16.0970   49.7610   49.6820 C.3    26  LEU26       0.1728
     38  C         14.8720   49.0240   49.1590 C.2    26  LEU26       0.2616
     39  O         14.4400   48.0220   49.7280 O.2    26  LEU26      -0.2715
     40  CB        17.3690   49.0220   49.2380 C.3    26  LEU26       0.0311
     41  CG        18.7430   49.6420   49.5270 C.3    26  LEU26       0.0022
     42  CD1       19.7660   49.0120   48.5920 C.3    26  LEU26       0.0001
     43  CD2       18.7150   51.1490   49.3290 C.3    26  LEU26       0.0001
     44  N         14.3230   49.5390   48.0640 N.am   27  GLU27      -0.1963
     45  CA        13.2000   48.9130   47.3820 C.3    27  GLU27       0.1733
     46  C         13.6880   47.6970   46.6080 C.2    27  GLU27       0.2616
     47  O         12.9780   46.7020   46.4840 O.2    27  GLU27      -0.2715
     48  CB        12.5590   49.9070   46.4110 C.3    27  GLU27       0.0429
     49  CG        12.2980   51.2900   47.0000 C.3    27  GLU27       0.1163
     50  CD        11.7150   52.2630   45.9810 C.2    27  GLU27       0.3649
     51  OE1       11.2720   51.8070   44.9020 O.co2  27  GLU27      -0.2457
     52  OE2       11.7000   53.4840   46.2570 O.co2  27  GLU27      -0.2457
     53  N         14.9040   47.7880   46.0790 N.am   28  LEU28      -0.1964
     54  CA        15.4560   46.7260   45.2440 C.3    28  LEU28       0.1713
     55  C         16.8520   46.3070   45.6880 C.2    28  LEU28       0.2458
     56  O         17.4930   46.9910   46.4870 O.2    28  LEU28      -0.2730
     57  CB        15.4980   47.1740   43.7760 C.3    28  LEU28       0.0310
     58  CG        14.1850   47.1510   42.9830 C.3    28  LEU28       0.0022
     59  CD1       13.2420   48.2270   43.4930 C.3    28  LEU28       0.0001
     60  CD2       14.4890   47.3670   41.5140 C.3    28  LEU28       0.0001
     61  N         17.3390   45.1630   45.1770 N.am   29  PRO29      -0.2727
     62  CA        18.6720   44.6580   45.5270 C.3    29  PRO29       0.1402
     63  C         19.7940   45.6560   45.2660 C.2    29  PRO29       0.2269
     64  O         19.6680   46.5540   44.4350 O.2    29  PRO29      -0.2865
     65  CB        18.8170   43.3990   44.6680 C.3    29  PRO29       0.0296
     66  CG        17.4170   42.9410   44.4550 C.3    29  PRO29       0.0237
     67  CD        16.6070   44.2100   44.3240 C.3    29  PRO29       0.0939
     68  N         23.1710   46.7750   43.5810 N.3    31  VAL31      -0.1245
     69  CA        23.6220   46.4860   42.2330 C.3    31  VAL31       0.1561
     70  C         25.0530   45.9700   42.2220 C.2    31  VAL31       0.2260
     71  O         25.9430   46.5770   42.8120 O.2    31  VAL31      -0.2867
     72  CB        23.5150   47.7320   41.3530 C.3    31  VAL31       0.0252
     73  CG1       24.1510   47.4760   40.0120 C.3    31  VAL31       0.0019
     74  CG2       22.0530   48.0900   41.1680 C.3    31  VAL31       0.0019
     75  N         20.3870   58.4940   43.0560 N.3    80  LYS80      -0.1245
     76  CA        19.5910   57.5770   42.2460 C.3    80  LYS80       0.1561
     77  C         19.6400   58.0060   40.7870 C.2    80  LYS80       0.2260
     78  O         19.5810   57.1810   39.8780 O.2    80  LYS80      -0.2867
     79  CB        18.1310   57.5590   42.7190 C.3    80  LYS80       0.0271
     80  CG        17.2110   56.7380   41.8200 C.3    80  LYS80       0.0035
     81  CD        15.8350   56.5020   42.4280 C.3    80  LYS80       0.0206
     82  CE        14.9310   55.7820   41.4260 C.3    80  LYS80       0.1093
     83  NZ        13.6410   55.3150   42.0090 N.3    80  LYS80      -0.1314
     84  N         23.2410   57.5630   39.0200 N.3    83  TYR83      -0.1227
     85  CA        23.4490   56.1890   38.5850 C.3    83  TYR83       0.1736
     86  C         22.6770   55.8200   37.3170 C.2    83  TYR83       0.2595
     87  O         23.2870   55.5000   36.3000 O.2    83  TYR83      -0.2718
     88  CB        23.1260   55.2160   39.7220 C.3    83  TYR83       0.0548
     89  CG        24.2140   55.1620   40.7810 C.ar   83  TYR83      -0.0200
     90  CD1       24.0240   55.7320   42.0400 C.ar   83  TYR83      -0.0009
     91  CD2       25.4370   54.5390   40.5220 C.ar   83  TYR83      -0.0009
     92  CE1       25.0250   55.6830   43.0170 C.ar   83  TYR83       0.0417
     93  CE2       26.4420   54.4820   41.4890 C.ar   83  TYR83       0.0417
     94  CZ        26.2290   55.0550   42.7370 C.ar   83  TYR83       0.1957
     95  OH        27.2060   54.9770   43.7080 O.3    83  TYR83      -0.2866
     96  N         21.3500   55.8830   37.3520 N.am   84  HIS84      -0.1975
     97  CA        20.5550   55.5440   36.1670 C.3    84  HIS84       0.1656
     98  C         20.9210   56.3450   34.9220 C.2    84  HIS84       0.2291
     99  O         21.0250   55.7860   33.8310 O.2    84  HIS84      -0.2864
    100  CB        19.0670   55.7200   36.4560 C.3    84  HIS84       0.0771
    101  CG        18.5560   54.7970   37.5140 C.ar   84  HIS84       0.0820
    102  ND1       17.5300   55.1360   38.3680 N.ar   84  HIS84      -0.2267
    103  CD2       18.9480   53.5520   37.8710 C.ar   84  HIS84       0.1154
    104  CE1       17.3130   54.1390   39.2060 C.ar   84  HIS84       0.1986
    105  NE2       18.1600   53.1670   38.9260 N.ar   84  HIS84      -0.2212
    106  N         24.7670   55.2050   34.0950 N.3    87  CYS87      -0.1221
    107  CA        24.8760   53.7620   33.9000 C.3    87  CYS87       0.1808
    108  C         24.0820   53.2900   32.6880 C.2    87  CYS87       0.2601
    109  O         24.6340   52.6700   31.7800 O.2    87  CYS87      -0.2717
    110  CB        24.3780   53.0310   35.1450 C.3    87  CYS87       0.0970
    111  SG        25.2250   53.5260   36.6730 S.3    87  CYS87      -0.0800
    112  N         22.7840   53.5820   32.6830 N.am   88  ILE88      -0.1979
    113  CA        21.9300   53.3000   31.5320 C.3    88  ILE88       0.1595
    114  C         22.2710   54.2320   30.3720 C.2    88  ILE88       0.2287
    115  O         22.1900   53.8460   29.2100 O.2    88  ILE88      -0.2864
    116  CB        20.4460   53.4790   31.8960 C.3    88  ILE88       0.0276
    117  CG1       20.0940   52.5330   33.0450 C.3    88  ILE88       0.0022
    118  CG2       19.5670   53.2110   30.6690 C.3    88  ILE88       0.0022
    119  CD1       19.1170   53.1000   34.0390 C.3    88  ILE88       0.0001
    120  N         25.1510   52.5680   28.5480 N.3    91  HIS91      -0.1241
    121  CA        24.7380   51.2930   27.9880 C.3    91  HIS91       0.1621
    122  C         23.8820   51.5240   26.7590 C.2    91  HIS91       0.2264
    123  O         23.9840   50.7900   25.7740 O.2    91  HIS91      -0.2867
    124  CB        23.9640   50.4640   29.0200 C.3    91  HIS91       0.0745
    125  CG        24.8160   49.9630   30.1380 C.ar   91  HIS91       0.0817
    126  ND1       24.2930   49.4680   31.3110 N.ar   91  HIS91      -0.2268
    127  CD2       26.1620   49.9130   30.2770 C.ar   91  HIS91       0.1154
    128  CE1       25.2780   49.1370   32.1270 C.ar   91  HIS91       0.1986
    129  NE2       26.4230   49.3970   31.5220 N.ar   91  HIS91      -0.2212
    130  N         23.0640   46.3390   31.0530 N.3   103  PRO103     -0.2102
    131  CA        21.5990   46.3970   31.1160 C.3   103  PRO103      0.1504
    132  C         21.0230   47.7340   30.6780 C.2   103  PRO103      0.2576
    133  O         21.6060   48.7830   30.9440 O.2   103  PRO103     -0.2718
    134  CB        21.2890   46.1110   32.5850 C.3   103  PRO103      0.0282
    135  CG        22.4550   45.3500   33.0680 C.3   103  PRO103      0.0208
    136  CD        23.6360   45.9460   32.3490 C.3   103  PRO103      0.0893
    137  N         19.8690   47.6900   30.0170 N.am  104  GLN104     -0.1966
    138  CA        19.1970   48.9040   29.5730 C.3   104  GLN104      0.1733
    139  C         17.9830   49.2400   30.4170 C.2   104  GLN104      0.2616
    140  O         17.6570   48.5230   31.3610 O.2   104  GLN104     -0.2715
    141  CB        18.7860   48.7810   28.1130 C.3   104  GLN104      0.0408
    142  CG        19.6380   49.6140   27.1870 C.3   104  GLN104      0.0908
    143  CD        20.0930   48.8410   25.9790 C.2   104  GLN104      0.2608
    144  OE1       19.6220   49.0790   24.8680 O.2   104  GLN104     -0.2717
    145  NE2       21.0140   47.9040   26.1850 N.am  104  GLN104     -0.0878
    146  N         17.3120   50.3280   30.0470 N.am  105  ASP105     -0.1957
    147  CA        16.4020   51.0440   30.9400 C.3   105  ASP105      0.1840
    148  C         15.4500   50.1500   31.7230 C.2   105  ASP105      0.2623
    149  O         15.2560   50.3390   32.9270 O.2   105  ASP105     -0.2715
    150  CB        15.5900   52.0740   30.1510 C.3   105  ASP105      0.1450
    151  CG        14.9530   53.1230   31.0480 C.2   105  ASP105      0.3671
    152  OD1       14.9020   54.3030   30.6360 O.co2 105  ASP105     -0.2456
    153  OD2       14.5080   52.7690   32.1640 O.co2 105  ASP105     -0.2456
    154  N         14.8590   49.1760   31.0480 N.am  106  GLY106     -0.1940
    155  CA        13.8260   48.3910   31.6920 C.3   106  GLY106      0.2014
    156  C         14.3300   47.1640   32.4210 C.2   106  GLY106      0.2639
    157  O         13.5590   46.4930   33.1010 O.2   106  GLY106     -0.2714
    158  N         15.6190   46.8710   32.2890 N.am  107  GLU107     -0.1963
    159  CA        16.1660   45.6040   32.7610 C.3   107  GLU107      0.1733
    160  C         16.5920   45.6410   34.2330 C.2   107  GLU107      0.2616
    161  O         17.7240   45.3000   34.5860 O.2   107  GLU107     -0.2715
    162  CB        17.3420   45.2000   31.8730 C.3   107  GLU107      0.0429
    163  CG        16.9600   44.9890   30.4100 C.3   107  GLU107      0.1163
    164  CD        18.1170   44.4710   29.5760 C.2   107  GLU107      0.3649
    165  OE1       19.1020   45.2180   29.4000 O.co2 107  GLU107     -0.2457
    166  OE2       18.0460   43.3180   29.1000 O.co2 107  GLU107     -0.2457
    167  N         15.6510   46.0380   35.0840 N.am  108  CYS108     -0.1968
    168  CA        15.8840   46.2510   36.5090 C.3   108  CYS108      0.1712
    169  C         16.6930   45.1550   37.2120 C.2   108  CYS108      0.2296
    170  O         17.7570   45.4220   37.7700 O.2   108  CYS108     -0.2864
    171  CB        14.5400   46.4160   37.2200 C.3   108  CYS108      0.0983
    172  SG        13.4450   47.6550   36.4590 S.3   108  CYS108     -0.0798
    173  N         20.5860   44.6550   36.6650 N.3   111  CYS111     -0.1221
    174  CA        21.5150   45.3990   37.5110 C.3   111  CYS111      0.1808
    175  C         21.2100   45.1080   38.9760 C.2   111  CYS111      0.2601
    176  O         22.1180   44.9340   39.7830 O.2   111  CYS111     -0.2717
    177  CB        21.3800   46.9050   37.2780 C.3   111  CYS111      0.0970
    178  SG        22.2030   47.5950   35.8000 S.3   111  CYS111     -0.0800
    179  N         19.9220   45.0760   39.3100 N.am  112  HIS112     -0.1975
    180  CA        19.4640   44.7460   40.6570 C.3   112  HIS112      0.1656
    181  C         19.2400   43.2440   40.7960 C.2   112  HIS112      0.2291
    182  O         18.1010   42.7770   40.8930 O.2   112  HIS112     -0.2864
    183  CB        18.1630   45.4860   40.9610 C.3   112  HIS112      0.0771
    184  CG        18.3340   46.9640   41.0970 C.ar  112  HIS112      0.0820
    185  ND1       18.7170   47.5590   42.2790 N.ar  112  HIS112     -0.2267
    186  CD2       18.1970   47.9670   40.1970 C.ar  112  HIS112      0.1154
    187  CE1       18.8100   48.8640   42.1010 C.ar  112  HIS112      0.1986
    188  NE2       18.4990   49.1370   40.8470 N.ar  112  HIS112     -0.2212
@<TRIPOS>BOND
     1   144   143    2
     2   123   122    2
     3   143   145   am
     4   143   142    1
     5   122   121    1
     6   142   141    1
     7   121   120    1
     8   121   124    1
     9   141   138    1
    10   124   125    1
    11   166   164   ar
    12   115   114    2
    13   165   164   ar
    14   138   137    1
    15   138   139    1
    16   164   163    1
    17   137   132   am
    18   146   139   am
    19   146   147    1
    20   125   127   ar
    21   125   126   ar
    22   150   147    1
    23   150   151    1
    24   127   129   ar
    25   114   113    1
    26   163   162    1
    27   139   140    2
    28   152   151   ar
    29   118   116    1
    30   132   133    2
    31   132   131    1
    32   147   148    1
    33   151   153   ar
    34   154   155    1
    35   154   148   am
    36   130   131    1
    37   130   136    1
    38   131   134    1
    39   126   128   ar
    40   129   128   ar
    41   113   116    1
    42   113   112    1
    43   155   156    1
    44   148   149    2
    45   109   108    2
    46   162   159    1
    47   116   117    1
    48   158   156   am
    49   158   159    1
    50   136   135    1
    51   156   157    2
    52   134   135    1
    53   112   108   am
    54   108   107    1
    55   159   160    1
    56   117   119    1
    57    99    98    2
    58   107   106    1
    59   107   110    1
    60   160   161    2
    61   160   167   am
    62    98    97    1
    63   167   168    1
    64   110   111    1
    65   178   177    1
    66    97   100    1
    67    97    96    1
    68    87    86    2
    69   100   101    1
    70   172   171    1
    71   168   169    1
    72   168   171    1
    73   173   174    1
    74   169   170    2
    75   177   174    1
    76    86    96   am
    77    86    85    1
    78   174   175    1
    79   101   103   ar
    80   101   102   ar
    81   103   105   ar
    82   102   104   ar
    83    85    84    1
    84    85    88    1
    85   105   104   ar
    86   175   179   am
    87   175   176    2
    88   179   180    1
    89    88    89    1
    90    78    77    2
    91    73    72    1
    92   186   188   ar
    93   186   184   ar
    94    91    89   ar
    95    91    93   ar
    96   180   181    1
    97   180   183    1
    98    89    90   ar
    99    77    76    1
   100   181   182    2
   101   188   187   ar
   102   183   184    1
   103   184   185   ar
   104    74    72    1
   105    72    69    1
   106    82    83    1
   107    82    81    1
   108     8     6    1
   109    93    94   ar
   110    60    58    1
   111    80    81    1
   112    80    79    1
   113    90    92   ar
   114   187   185   ar
   115    70    69    1
   116    70    71    2
   117    69    68    1
   118    76    79    1
   119    76    75    1
   120    94    92   ar
   121    94    95    1
   122     6     5    1
   123    58    59    1
   124    58    57    1
   125     5     7    1
   126     5     2    1
   127    57    54    1
   128    67    66    1
   129    67    61    1
   130    64    63    2
   131    66    65    1
   132    65    62    1
   133    51    50   ar
   134     1     2    1
   135     2     3    1
   136    61    62    1
   137    61    55   am
   138    54    55    1
   139    54    53    1
   140    63    62    1
   141     4     3    2
   142    55    56    2
   143     3     9   am
   144    26    27    1
   145    26    25    1
   146    50    52   ar
   147    50    49    1
   148    53    46   am
   149    25    24    1
   150    48    49    1
   151    48    45    1
   152    47    46    2
   153    46    45    1
   154     9    10    1
   155    45    44    1
   156    19    17    1
   157    24    21    1
   158    10    11    1
   159    17    18    1
   160    17    14    1
   161    44    38   am
   162    13    11   am
   163    13    14    1
   164    20    21    1
   165    20    15   am
   166    42    41    1
   167    21    22    1
   168    11    12    2
   169    14    15    1
   170    38    37    1
   171    38    39    2
   172    15    16    2
   173    40    41    1
   174    40    37    1
   175    43    41    1
   176    37    36    1
   177    22    23    2
   178    31    30    2
   179    36    30   am
   180    30    29    1
   181    35    33   am
   182    29    28    1
   183    29    32    1
   184    32    33    1
   185    33    34    2
