@<TRIPOS>MOLECULE
tmp/2e84A14.pdb
 166 160 0 0 0
SMALL
GASTEIGER

@<TRIPOS>ATOM
      1  N         52.9150   42.1580   67.6130 N.3   285  CYS285     -0.1221
      2  CA        53.1160   42.4920   69.0130 C.3   285  CYS285      0.1808
      3  C         52.6230   43.9170   69.2710 C.2   285  CYS285      0.2601
      4  O         51.8730   44.1600   70.2170 O.2   285  CYS285     -0.2717
      5  CB        54.6020   42.3700   69.3820 C.3   285  CYS285      0.0970
      6  SG        55.3500   40.7070   69.1930 S.3   285  CYS285     -0.0800
      7  N         53.0450   44.8540   68.4250 N.am  286  HIS286     -0.1961
      8  CA        52.6100   46.2420   68.5360 C.3   286  HIS286      0.1787
      9  C         51.2120   46.4050   67.9610 C.2   286  HIS286      0.2620
     10  O         51.0200   47.0000   66.9020 O.2   286  HIS286     -0.2715
     11  CB        53.5870   47.1520   67.8020 C.3   286  HIS286      0.0785
     12  CG        54.9720   47.1050   68.3630 C.ar  286  HIS286      0.0821
     13  ND1       55.3180   47.7310   69.5420 N.ar  286  HIS286     -0.2267
     14  CD2       56.0840   46.4640   67.9380 C.ar  286  HIS286      0.1154
     15  CE1       56.5820   47.4730   69.8210 C.ar  286  HIS286      0.1986
     16  NE2       57.0690   46.7070   68.8630 N.ar  286  HIS286     -0.2212
     17  N         50.2350   45.8800   68.6840 N.am  287  HIS287     -0.1959
     18  CA        48.9420   45.5880   68.1070 C.3   287  HIS287      0.1787
     19  C         48.0660   46.8140   67.9140 C.2   287  HIS287      0.2620
     20  O         47.0890   46.7710   67.1630 O.2   287  HIS287     -0.2715
     21  CB        48.2180   44.5450   68.9630 C.3   287  HIS287      0.0785
     22  CG        47.9720   44.9710   70.3730 C.ar  287  HIS287      0.0821
     23  ND1       46.7410   45.4080   70.8100 N.ar  287  HIS287     -0.2267
     24  CD2       48.7790   44.9700   71.4610 C.ar  287  HIS287      0.1154
     25  CE1       46.7980   45.6540   72.1070 C.ar  287  HIS287      0.1986
     26  NE2       48.0230   45.3960   72.5270 N.ar  287  HIS287     -0.2212
     27  N         48.4150   47.9060   68.5870 N.am  288  VAL288     -0.1963
     28  CA        47.7200   49.1630   68.3720 C.3   288  VAL288      0.1727
     29  C         48.5680   50.0740   67.4990 C.2   288  VAL288      0.2616
     30  O         48.1310   50.5070   66.4380 O.2   288  VAL288     -0.2715
     31  CB        47.4200   49.8850   69.7080 C.3   288  VAL288      0.0290
     32  CG1       46.6510   51.1830   69.4370 C.3   288  VAL288      0.0023
     33  CG2       46.6260   48.9740   70.6350 C.3   288  VAL288      0.0023
     34  N         49.7830   50.3610   67.9570 N.am  289  LYS289     -0.1977
     35  CA        50.7170   51.2220   67.2280 C.3   289  LYS289      0.1596
     36  C         52.1190   50.7860   67.6300 C.2   289  LYS289      0.2287
     37  O         52.2860   50.1320   68.6520 O.2   289  LYS289     -0.2864
     38  CB        50.5030   52.6820   67.6290 C.3   289  LYS289      0.0298
     39  CG        50.6720   52.9160   69.1290 C.3   289  LYS289      0.0038
     40  CD        50.3510   54.3450   69.5590 C.3   289  LYS289      0.0206
     41  CE        51.0390   54.6700   70.8910 C.3   289  LYS289      0.1093
     42  NZ        50.2110   55.5270   71.7870 N.3   289  LYS289     -0.1314
     43  N         54.7600   51.5030   69.6290 N.3   291  ASP291     -0.1225
     44  CA        55.1920   52.2960   70.7680 C.3   291  ASP291      0.1805
     45  C         55.8230   51.3020   71.7380 C.2   291  ASP291      0.2598
     46  O         56.4900   50.3640   71.3180 O.2   291  ASP291     -0.2718
     47  CB        53.9920   53.0010   71.4250 C.3   291  ASP291      0.1424
     48  CG        54.4120   54.0150   72.4970 C.2   291  ASP291      0.3668
     49  OD1       55.6300   54.1540   72.7620 O.co2 291  ASP291     -0.2456
     50  OD2       53.5160   54.6740   73.0740 O.co2 291  ASP291     -0.2456
     51  N         55.6180   51.4960   73.0310 N.am  292  ASN292     -0.1960
     52  CA        56.0620   50.5020   73.9800 C.3   292  ASN292      0.1819
     53  C         54.9260   50.1330   74.9180 C.2   292  ASN292      0.2621
     54  O         54.0340   50.9390   75.1890 O.2   292  ASN292     -0.2715
     55  CB        57.2850   51.0170   74.7500 C.3   292  ASN292      0.1195
     56  CG        56.9410   51.5160   76.1310 C.2   292  ASN292      0.2630
     57  OD1       56.0130   52.3050   76.3110 O.2   292  ASN292     -0.2716
     58  ND2       57.6950   51.0580   77.1230 N.am  292  ASN292     -0.0877
     59  N         54.9660   48.9010   75.4010 N.am  293  CYS293     -0.1968
     60  CA        53.8360   48.3000   76.0930 C.3   293  CYS293      0.1712
     61  C         53.4740   49.0300   77.3920 C.2   293  CYS293      0.2296
     62  O         52.2980   49.1960   77.7210 O.2   293  CYS293     -0.2864
     63  CB        54.1650   46.8340   76.3780 C.3   293  CYS293      0.0983
     64  SG        54.9740   46.0110   74.9620 S.3   293  CYS293     -0.0798
     65  N         53.5030   51.9410   78.1020 N.3   295  THR295     -0.1203
     66  CA        52.7020   53.1340   77.8380 C.3   295  THR295      0.1994
     67  C         51.2690   52.8810   78.3150 C.2   295  THR295      0.2618
     68  O         50.6850   53.6910   79.0340 O.2   295  THR295     -0.2717
     69  CB        52.6440   53.4560   76.3190 C.3   295  THR295      0.1784
     70  OG1       53.9700   53.6490   75.8130 O.3   295  THR295     -0.2211
     71  CG2       51.8250   54.7180   76.0730 C.3   295  THR295      0.0376
     72  N         50.7200   51.7420   77.9020 N.am  296  CYS296     -0.1955
     73  CA        49.3270   51.4090   78.1600 C.3   296  CYS296      0.1843
     74  C         49.1870   50.3180   79.2260 C.2   296  CYS296      0.2625
     75  O         48.1170   50.1600   79.8180 O.2   296  CYS296     -0.2714
     76  CB        48.6430   50.9420   76.8640 C.3   296  CYS296      0.0997
     77  SG        48.5620   52.1340   75.4730 S.3   296  CYS296     -0.0797
     78  N         50.2520   49.5570   79.4650 N.am  297  HIS297     -0.1973
     79  CA        50.1910   48.4530   80.4270 C.3   297  HIS297      0.1656
     80  C         51.1250   48.6410   81.6120 C.2   297  HIS297      0.2291
     81  O         52.3420   48.4590   81.4950 O.2   297  HIS297     -0.2864
     82  CB        50.5240   47.1300   79.7460 C.3   297  HIS297      0.0771
     83  CG        49.5430   46.7340   78.6950 C.ar  297  HIS297      0.0820
     84  ND1       48.2360   46.4050   78.9880 N.ar  297  HIS297     -0.2267
     85  CD2       49.6660   46.6310   77.3500 C.ar  297  HIS297      0.1154
     86  CE1       47.5950   46.1180   77.8690 C.ar  297  HIS297      0.1986
     87  NE2       48.4390   46.2480   76.8610 N.ar  297  HIS297     -0.2212
     88  N         43.9640   53.7080   79.2880 N.3   304  ASP304     -0.1225
     89  CA        44.4760   53.6550   77.9200 C.3   304  ASP304      0.1805
     90  C         44.8340   52.2210   77.5230 C.2   304  ASP304      0.2598
     91  O         45.0240   51.9180   76.3420 O.2   304  ASP304     -0.2718
     92  CB        45.6980   54.5690   77.7670 C.3   304  ASP304      0.1424
     93  CG        45.3220   56.0050   77.3900 C.2   304  ASP304      0.3668
     94  OD1       44.2070   56.2290   76.8640 O.co2 304  ASP304     -0.2456
     95  OD2       46.1540   56.9130   77.6140 O.co2 304  ASP304     -0.2456
     96  N         44.9100   51.3390   78.5150 N.am  305  GLY305     -0.1942
     97  CA        45.1460   49.9380   78.2290 C.3   305  GLY305      0.2014
     98  C         43.9850   49.0570   78.6470 C.2   305  GLY305      0.2638
     99  O         44.1600   47.8630   78.9070 O.2   305  GLY305     -0.2714
    100  N         42.7930   49.6400   78.7210 N.am  306  ASN306     -0.1972
    101  CA        41.6210   48.9100   79.1840 C.3   306  ASN306      0.1688
    102  C         41.9460   48.1670   80.4670 C.2   306  ASN306      0.2292
    103  O         41.3460   47.1370   80.7840 O.2   306  ASN306     -0.2864
    104  CB        41.1560   47.9230   78.1180 C.3   306  ASN306      0.1181
    105  CG        39.8770   48.3650   77.4380 C.2   306  ASN306      0.2629
    106  OD1       39.9050   49.0870   76.4340 O.2   306  ASN306     -0.2716
    107  ND2       38.7400   47.9360   77.9870 N.am  306  ASN306     -0.0877
    108  N         44.1430   46.2470   81.3030 N.3   308  VAL308     -0.1245
    109  CA        44.9430   45.0370   81.2250 C.3   308  VAL308      0.1561
    110  C         46.3090   45.3420   81.8400 C.2   308  VAL308      0.2260
    111  O         47.1050   46.0830   81.2690 O.2   308  VAL308     -0.2867
    112  CB        45.1180   44.5800   79.7620 C.3   308  VAL308      0.0252
    113  CG1       46.0960   43.4110   79.6860 C.3   308  VAL308      0.0019
    114  CG2       43.7760   44.1770   79.1880 C.3   308  VAL308      0.0019
    115  N         49.4610   40.6640   83.0910 N.3   312  LYS312     -0.1231
    116  CA        48.5150   40.0170   82.1910 C.3   312  LYS312      0.1693
    117  C         49.0140   40.1570   80.7580 C.2   312  LYS312      0.2592
    118  O         48.9160   39.2200   79.9590 O.2   312  LYS312     -0.2718
    119  CB        47.1320   40.6580   82.3330 C.3   312  LYS312      0.0285
    120  CG        46.0920   40.1530   81.3470 C.3   312  LYS312      0.0035
    121  CD        44.6860   40.3360   81.8920 C.3   312  LYS312      0.0206
    122  CE        43.6550   39.6380   81.0150 C.3   312  LYS312      0.1093
    123  NZ        42.4380   39.2290   81.7880 N.3   312  LYS312     -0.1314
    124  N         49.5620   41.3280   80.4440 N.am  313  ALA313     -0.1966
    125  CA        50.0290   41.6170   79.0900 C.3   313  ALA313      0.1728
    126  C         51.2660   40.8040   78.7150 C.2   313  ALA313      0.2616
    127  O         51.5500   40.5960   77.5370 O.2   313  ALA313     -0.2715
    128  CB        50.3220   43.1060   78.9470 C.3   313  ALA313      0.0334
    129  N         52.0000   40.3370   79.7140 N.am  314  MET314     -0.1977
    130  CA        53.2020   39.5760   79.4270 C.3   314  MET314      0.1605
    131  C         53.0550   38.0620   79.6420 C.2   314  MET314      0.2287
    132  O         53.9480   37.2950   79.2730 O.2   314  MET314     -0.2864
    133  CB        54.3690   40.1290   80.2540 C.3   314  MET314      0.0413
    134  CG        54.6800   41.5980   79.9720 C.3   314  MET314      0.0598
    135  SD        55.1160   41.9540   78.2430 S.3   314  MET314     -0.1393
    136  CE        55.0030   43.7340   78.2290 C.3   314  MET314      0.0692
    137  N         49.4990   36.1790   79.6360 N.3   316  GLN316     -0.1245
    138  CA        48.2810   35.5040   79.1720 C.3   316  GLN316      0.1566
    139  C         48.6030   34.2340   78.3800 C.2   316  GLN316      0.2260
    140  O         49.0360   34.3070   77.2330 O.2   316  GLN316     -0.2867
    141  CB        47.4600   36.4440   78.2860 C.3   316  GLN316      0.0367
    142  CG        46.4530   37.2770   79.0310 C.3   316  GLN316      0.0905
    143  CD        45.2850   36.4530   79.5200 C.2   316  GLN316      0.2608
    144  OE1       44.9560   36.4670   80.7080 O.2   316  GLN316     -0.2717
    145  NE2       44.6500   35.7220   78.6060 N.am  316  GLN316     -0.0878
    146  N         47.1280   34.1970   74.8890 N.3   319  SER319     -0.1217
    147  CA        47.2630   35.3340   73.9830 C.3   319  SER319      0.1889
    148  C         48.5680   35.3620   73.2100 C.2   319  SER319      0.2288
    149  O         49.6550   35.3250   73.7940 O.2   319  SER319     -0.2866
    150  CB        47.1240   36.6420   74.7610 C.3   319  SER319      0.2089
    151  OG        47.3950   37.7510   73.9280 O.3   319  SER319     -0.2183
    152  N         49.7800   37.8400   71.8540 N.3   321  LYS321     -0.1231
    153  CA        50.4530   39.0960   72.1200 C.3   321  LYS321      0.1693
    154  C         51.3300   39.0220   73.3660 C.2   321  LYS321      0.2592
    155  O         52.1960   39.8770   73.5630 O.2   321  LYS321     -0.2718
    156  CB        49.4320   40.2200   72.2870 C.3   321  LYS321      0.0285
    157  CG        48.9010   40.7670   70.9860 C.3   321  LYS321      0.0035
    158  CD        47.3740   40.7430   70.9490 C.3   321  LYS321      0.0206
    159  CE        46.7670   41.7660   71.8890 C.3   321  LYS321      0.1093
    160  NZ        45.3400   42.0140   71.5470 N.3   321  LYS321     -0.1314
    161  N         51.1150   38.0140   74.2060 N.am  322  SER322     -0.1952
    162  CA        51.8770   37.9220   75.4410 C.3   322  SER322      0.1924
    163  C         53.1000   37.0010   75.3140 C.2   322  SER322      0.2314
    164  O         53.1180   36.0850   74.4900 O.2   322  SER322     -0.2863
    165  CB        50.9790   37.4380   76.5850 C.3   322  SER322      0.2116
    166  OG        50.9180   36.0260   76.6060 O.3   322  SER322     -0.2180
@<TRIPOS>BOND
     1    30    29    2
     2    10     9    2
     3    20    19    2
     4    35    38    1
     5    35    36    1
     6    35    34    1
     7    29    34   am
     8    29    28    1
     9     1     2    1
    10    38    39    1
    11    36    37    2
    12    11    12    1
    13    11     8    1
    14    19    18    1
    15    19    27   am
    16    14    12   ar
    17    14    16   ar
    18     9     8    1
    19     9    17   am
    20    18    17    1
    21    18    21    1
    22    12    13   ar
    23    28    27    1
    24    28    31    1
    25     7     8    1
    26     7     3   am
    27    16    15   ar
    28    21    22    1
    29     2     3    1
    30     2     5    1
    31    39    40    1
    32     6     5    1
    33     3     4    2
    34    32    31    1
    35    13    15   ar
    36    40    41    1
    37    43    44    1
    38    31    33    1
    39    22    23   ar
    40    22    24   ar
    41    44    47    1
    42    44    45    1
    43    23    25   ar
    44    41    42    1
    45   158   157    1
    46   158   159    1
    47   157   156    1
    48    46    45    2
    49    47    48    1
    50    24    26   ar
    51   160   159    1
    52    45    51   am
    53   152   153    1
    54    25    26   ar
    55   153   156    1
    56   153   154    1
    57    48    49   ar
    58    48    50   ar
    59    51    52    1
    60   148   149    2
    61   148   147    1
    62   154   155    2
    63   154   161   am
    64   151   150    1
    65    52    55    1
    66    52    53    1
    67   147   150    1
    68   147   146    1
    69   161   162    1
    70   164   163    2
    71    55    56    1
    72    53    54    2
    73    53    59   am
    74    64    63    1
    75   163   162    1
    76    59    60    1
    77   162   165    1
    78    77    76    1
    79    70    69    1
    80    71    69    1
    81    60    63    1
    82    60    61    1
    83    56    57    2
    84    56    58   am
    85    69    66    1
    86    91    90    2
    87   106   105    2
    88   165   166    1
    89    87    85   ar
    90    87    86   ar
    91    94    93   ar
    92    76    73    1
    93   140   139    2
    94    85    83   ar
    95    93    95   ar
    96    93    92    1
    97    61    62    2
    98   105   107   am
    99   105   104    1
   100    90    89    1
   101    90    96   am
   102   127   126    2
   103    92    89    1
   104    66    65    1
   105    66    67    1
   106    86    84   ar
   107    72    73    1
   108    72    67   am
   109    89    88    1
   110   104   101    1
   111    73    74    1
   112    97    96    1
   113    97    98    1
   114   136   135    1
   115   135   134    1
   116   141   142    1
   117   141   138    1
   118    67    68    2
   119   139   138    1
   120   145   143   am
   121    98   100   am
   122    98    99    2
   123    83    84   ar
   124    83    82    1
   125   126   125    1
   126   126   129   am
   127   100   101    1
   128   128   125    1
   129   142   143    1
   130   125   124    1
   131   138   137    1
   132   101   102    1
   133   114   112    1
   134    74    78   am
   135    74    75    2
   136   132   131    2
   137   130   131    1
   138   130   129    1
   139   130   133    1
   140    78    79    1
   141   143   144    2
   142   113   112    1
   143    82    79    1
   144   112   109    1
   145   118   117    2
   146   134   133    1
   147    79    80    1
   148   124   117   am
   149   102   103    2
   150   117   116    1
   151   122   123    1
   152   122   121    1
   153   109   108    1
   154   109   110    1
   155   111   110    2
   156   120   121    1
   157   120   119    1
   158    81    80    2
   159   116   119    1
   160   116   115    1
