@<TRIPOS>MOLECULE
tmp/2e84A04.pdb
 160 151 0 0 0
SMALL
GASTEIGER

@<TRIPOS>ATOM
      1  N         55.6070   16.6820   70.7860 N.3   338  GLY338     -0.1210
      2  CA        55.5970   15.3530   71.3740 C.3   338  GLY338      0.1956
      3  C         55.7820   15.3800   72.8790 C.2   338  GLY338      0.2612
      4  O         55.0390   14.7440   73.6210 O.2   338  GLY338     -0.2717
      5  N         56.7750   16.1170   73.3460 N.am  339  CYS339     -0.1970
      6  CA        56.9160   16.3120   74.7800 C.3   339  CYS339      0.1712
      7  C         55.8460   17.2580   75.2810 C.2   339  CYS339      0.2296
      8  O         55.1870   16.9910   76.2880 O.2   339  CYS339     -0.2864
      9  CB        58.2740   16.8990   75.1130 C.3   339  CYS339      0.0983
     10  SG        59.6480   15.7650   74.8350 S.3   339  CYS339     -0.0798
     11  N         60.3130   -3.1650   78.3670 N.3   412  ILE412     -0.1245
     12  CA        59.0920   -2.9950   79.1280 C.3   412  ILE412      0.1561
     13  C         58.2530   -4.2530   78.9640 C.2   412  ILE412      0.2260
     14  O         57.6310   -4.4780   77.9250 O.2   412  ILE412     -0.2867
     15  CB        58.3090   -1.7540   78.6410 C.3   412  ILE412      0.0252
     16  CG1       59.2170   -0.5160   78.7110 C.3   412  ILE412      0.0019
     17  CG2       57.0730   -1.5380   79.5140 C.3   412  ILE412      0.0019
     18  CD1       58.6950    0.6950   77.9490 C.3   412  ILE412      0.0001
     19  N         58.1220   -4.8070   74.9500 N.3   422  SER422     -0.1202
     20  CA        58.5430   -3.8510   73.9390 C.3   422  SER422      0.2020
     21  C         59.9650   -3.4430   74.2560 C.2   422  SER422      0.2619
     22  O         60.2860   -3.1230   75.4050 O.2   422  SER422     -0.2717
     23  CB        57.6260   -2.6180   73.9360 C.3   422  SER422      0.2103
     24  OG        57.8190   -1.8150   75.0820 O.3   422  SER422     -0.2182
     25  N         60.8270   -3.4740   73.2480 N.am  423  LYS423     -0.1965
     26  CA        62.1950   -3.0130   73.4310 C.3   423  LYS423      0.1728
     27  C         62.2550   -1.5390   73.0330 C.2   423  LYS423      0.2616
     28  O         62.1000   -1.1930   71.8610 O.2   423  LYS423     -0.2715
     29  CB        63.1550   -3.8500   72.5710 C.3   423  LYS423      0.0311
     30  CG        64.5880   -3.9280   73.1060 C.3   423  LYS423      0.0038
     31  CD        65.4730   -4.8400   72.2470 C.3   423  LYS423      0.0206
     32  CE        66.8840   -4.9650   72.8340 C.3   423  LYS423      0.1093
     33  NZ        67.9480   -5.2340   71.8050 N.3   423  LYS423     -0.1314
     34  N         62.4680   -0.6700   74.0140 N.am  424  LEU424     -0.1964
     35  CA        62.4710    0.7670   73.7610 C.3   424  LEU424      0.1713
     36  C         63.8090    1.2970   73.2420 C.2   424  LEU424      0.2458
     37  O         64.8230    1.2380   73.9390 O.2   424  LEU424     -0.2730
     38  CB        62.1090    1.5260   75.0330 C.3   424  LEU424      0.0310
     39  CG        62.0230    3.0370   74.8280 C.3   424  LEU424      0.0022
     40  CD1       60.8290    3.3510   73.9340 C.3   424  LEU424      0.0001
     41  CD2       61.8940    3.7390   76.1630 C.3   424  LEU424      0.0001
     42  N         63.8280    1.8160   72.0060 N.am  425  PRO425     -0.2727
     43  CA        65.0580    2.3610   71.4200 C.3   425  PRO425      0.1402
     44  C         65.3910    3.6540   72.1710 C.2   425  PRO425      0.2269
     45  O         65.3910    4.7460   71.5890 O.2   425  PRO425     -0.2865
     46  CB        64.6770    2.6500   69.9710 C.3   425  PRO425      0.0296
     47  CG        63.4190    1.8990   69.7360 C.3   425  PRO425      0.0237
     48  CD        62.7170    1.8150   71.0440 C.3   425  PRO425      0.0939
     49  N         68.2860    6.1380   71.2260 N.3   428  LYS428     -0.1231
     50  CA        68.0970    6.6070   69.8580 C.3   428  LYS428      0.1693
     51  C         67.0110    7.6730   69.7910 C.2   428  LYS428      0.2591
     52  O         67.1510    8.6720   69.0860 O.2   428  LYS428     -0.2718
     53  CB        67.7270    5.4530   68.9310 C.3   428  LYS428      0.0285
     54  CG        67.7470    5.8440   67.4650 C.3   428  LYS428      0.0035
     55  CD        67.2460    4.7210   66.5810 C.3   428  LYS428      0.0206
     56  CE        67.0530    5.2220   65.1620 C.3   428  LYS428      0.1093
     57  NZ        66.4490    4.1910   64.2720 N.3   428  LYS428     -0.1314
     58  N         65.9320    7.4650   70.5350 N.am  429  ILE429     -0.1980
     59  CA        64.8480    8.4250   70.5360 C.3   429  ILE429      0.1595
     60  C         65.2840    9.7610   71.1450 C.2   429  ILE429      0.2287
     61  O         64.9900   10.8240   70.5860 O.2   429  ILE429     -0.2864
     62  CB        63.6110    7.8500   71.2710 C.3   429  ILE429      0.0276
     63  CG1       63.0780    6.6330   70.4980 C.3   429  ILE429      0.0022
     64  CG2       62.5180    8.8950   71.3640 C.3   429  ILE429      0.0022
     65  CD1       62.0710    5.7870   71.2610 C.3   429  ILE429      0.0001
     66  N         67.3190   11.6900   68.7460 N.3   432  THR432     -0.1203
     67  CA        66.4660   12.1950   67.6790 C.3   432  THR432      0.1994
     68  C         65.6140   13.3730   68.1390 C.2   432  THR432      0.2617
     69  O         65.3690   14.3110   67.3690 O.2   432  THR432     -0.2717
     70  CB        65.5310   11.0960   67.1250 C.3   432  THR432      0.1784
     71  OG1       66.3220   10.0350   66.5810 O.3   432  THR432     -0.2211
     72  CG2       64.6250   11.6650   66.0150 C.3   432  THR432      0.0376
     73  N         65.1560   13.3310   69.3860 N.am  433  LEU433     -0.1979
     74  CA        64.4480   14.4790   69.9310 C.3   433  LEU433      0.1596
     75  C         65.3920   15.6730   70.0660 C.2   433  LEU433      0.2287
     76  O         65.0130   16.8010   69.7560 O.2   433  LEU433     -0.2864
     77  CB        63.8280   14.1380   71.2840 C.3   433  LEU433      0.0297
     78  CG        62.6810   13.1280   71.2430 C.3   433  LEU433      0.0022
     79  CD1       62.2300   12.8220   72.6710 C.3   433  LEU433      0.0001
     80  CD2       61.5340   13.6720   70.4000 C.3   433  LEU433      0.0001
     81  N         59.1180   13.0570   79.3180 N.3   457  CYS457     -0.1235
     82  CA        58.4390   11.7720   79.4540 C.3   457  CYS457      0.1677
     83  C         58.4010   11.3460   80.9120 C.2   457  CYS457      0.2270
     84  O         57.4050   10.7980   81.3680 O.2   457  CYS457     -0.2867
     85  CB        59.1560   10.6920   78.6510 C.3   457  CYS457      0.0956
     86  SG        59.3650   11.0590   76.8860 S.3   457  CYS457     -0.0801
     87  N         51.3280    4.0770   79.1400 N.3   485  TYR485     -0.1241
     88  CA        52.2440    3.7890   78.0430 C.3   485  TYR485      0.1605
     89  C         51.6060    4.1830   76.7300 C.2   485  TYR485      0.2264
     90  O         52.1550    4.9800   75.9760 O.2   485  TYR485     -0.2867
     91  CB        52.6040    2.3030   78.0000 C.3   485  TYR485      0.0534
     92  CG        53.6060    1.8870   79.0500 C.ar  485  TYR485     -0.0201
     93  CD1       53.3830    0.7580   79.8410 C.ar  485  TYR485     -0.0009
     94  CD2       54.7740    2.6230   79.2630 C.ar  485  TYR485     -0.0009
     95  CE1       54.2930    0.3680   80.8190 C.ar  485  TYR485      0.0417
     96  CE2       55.6990    2.2420   80.2460 C.ar  485  TYR485      0.0417
     97  CZ        55.4470    1.1130   81.0180 C.ar  485  TYR485      0.1957
     98  OH        56.3310    0.7330   81.9970 O.3   485  TYR485     -0.2866
     99  N         51.2030    7.9710   76.3100 N.3   488  GLN488     -0.1231
    100  CA        52.4360    8.7210   76.1130 C.3   488  GLN488      0.1698
    101  C         53.1590    8.3400   74.8190 C.2   488  GLN488      0.2592
    102  O         53.6120    9.2110   74.0820 O.2   488  GLN488     -0.2718
    103  CB        53.3820    8.5440   77.3000 C.3   488  GLN488      0.0381
    104  CG        54.5360    9.5380   77.2650 C.3   488  GLN488      0.0905
    105  CD        55.6520    9.1930   78.2190 C.2   488  GLN488      0.2608
    106  OE1       56.4520    8.2940   77.9610 O.2   488  GLN488     -0.2717
    107  NE2       55.7160    9.9080   79.3320 N.am  488  GLN488     -0.0878
    108  N         53.2540    7.0470   74.5390 N.am  489  CYS489     -0.1970
    109  CA        53.9990    6.5770   73.3770 C.3   489  CYS489      0.1712
    110  C         53.3070    6.9160   72.0600 C.2   489  CYS489      0.2296
    111  O         53.9050    7.5280   71.1780 O.2   489  CYS489     -0.2864
    112  CB        54.2030    5.0620   73.4360 C.3   489  CYS489      0.0983
    113  SG        54.7850    4.4000   75.0150 S.3   489  CYS489     -0.0798
    114  N         52.8740   10.7700   71.2840 N.3   492  CYS492     -0.1221
    115  CA        53.9560   11.5590   70.7320 C.3   492  CYS492      0.1808
    116  C         54.1900   11.2540   69.2590 C.2   492  CYS492      0.2601
    117  O         54.4570   12.1590   68.4710 O.2   492  CYS492     -0.2717
    118  CB        55.2220   11.3210   71.5420 C.3   492  CYS492      0.0970
    119  SG        56.7300   12.0870   70.8690 S.3   492  CYS492     -0.0800
    120  N         54.0780    9.9860   68.8760 N.am  493  HIS493     -0.1975
    121  CA        54.2250    9.6160   67.4640 C.3   493  HIS493      0.1656
    122  C         53.1830   10.3620   66.6510 C.2   493  HIS493      0.2291
    123  O         53.4740   10.8760   65.5750 O.2   493  HIS493     -0.2864
    124  CB        54.0670    8.0980   67.2730 C.3   493  HIS493      0.0771
    125  CG        55.1880    7.2940   67.8620 C.ar  493  HIS493      0.0820
    126  ND1       55.5270    6.0390   67.4040 N.ar  493  HIS493     -0.2267
    127  CD2       56.0590    7.5730   68.8650 C.ar  493  HIS493      0.1154
    128  CE1       56.5560    5.5800   68.0970 C.ar  493  HIS493      0.1986
    129  NE2       56.8990    6.4920   68.9900 N.ar  493  HIS493     -0.2212
    130  N         53.9180   14.2340   66.7170 N.3   496  MET496     -0.1245
    131  CA        55.1520   14.4860   65.9870 C.3   496  MET496      0.1570
    132  C         54.9580   14.2100   64.5010 C.2   496  MET496      0.2261
    133  O         55.7710   14.6140   63.6740 O.2   496  MET496     -0.2867
    134  CB        56.2950   13.6260   66.5480 C.3   496  MET496      0.0387
    135  CG        56.7550   14.0370   67.9590 C.3   496  MET496      0.0595
    136  SD        58.5380   13.8330   68.2600 S.3   496  MET496     -0.1393
    137  CE        59.2200   14.9440   67.0110 C.3   496  MET496      0.0692
    138  N         55.0630   11.4800   62.4430 N.3   498  LEU498     -0.1245
    139  CA        56.1610   10.8080   61.7560 C.3   498  LEU498      0.1561
    140  C         55.7540    9.5190   61.0440 C.2   498  LEU498      0.2260
    141  O         56.5020    8.9910   60.2210 O.2   498  LEU498     -0.2867
    142  CB        57.3040   10.5360   62.7390 C.3   498  LEU498      0.0270
    143  CG        56.9190   10.2480   64.1880 C.3   498  LEU498      0.0019
    144  CD1       56.1630    8.9490   64.2530 C.3   498  LEU498      0.0001
    145  CD2       58.1640   10.1820   65.0500 C.3   498  LEU498      0.0001
    146  N         54.5430   -2.2030   65.8540 N.3   507  GLU507     -0.1231
    147  CA        55.6610   -1.2670   65.9520 C.3   507  GLU507      0.1699
    148  C         56.4120   -1.4000   67.2650 C.2   507  GLU507      0.2592
    149  O         57.6380   -1.3910   67.2960 O.2   507  GLU507     -0.2718
    150  CB        55.1800    0.1850   65.8150 C.3   507  GLU507      0.0402
    151  CG        56.3300    1.2020   65.9330 C.3   507  GLU507      0.1161
    152  CD        55.8730    2.6550   65.9690 C.2   507  GLU507      0.3649
    153  OE1       54.7080    2.9260   66.3170 O.co2 507  GLU507     -0.2457
    154  OE2       56.6930    3.5350   65.6540 O.co2 507  GLU507     -0.2457
    155  N         55.6760   -1.5070   68.3580 N.am  508  CYS508     -0.1970
    156  CA        56.3060   -1.4130   69.6530 C.3   508  CYS508      0.1712
    157  C         56.3360   -2.7510   70.3690 C.2   508  CYS508      0.2296
    158  O         56.8770   -2.8510   71.4610 O.2   508  CYS508     -0.2864
    159  CB        55.5920   -0.3690   70.5170 C.3   508  CYS508      0.0983
    160  SG        55.4870    1.3230   69.8240 S.3   508  CYS508     -0.0798
@<TRIPOS>BOND
     1   141   140    2
     2   140   139    1
     3   139   138    1
     4   139   142    1
     5   142   143    1
     6   133   132    2
     7   143   144    1
     8   143   145    1
     9    57    56    1
    10   132   131    1
    11    56    55    1
    12   123   122    2
    13   154   152   ar
    14   150   151    1
    15   150   147    1
    16   146   147    1
    17   151   152    1
    18   147   148    1
    19   152   153   ar
    20   131   134    1
    21   131   130    1
    22    72    70    1
    23   134   135    1
    24    71    70    1
    25    55    54    1
    26   122   121    1
    27   137   136    1
    28    70    67    1
    29   148   149    2
    30   148   155   am
    31   124   121    1
    32   124   125    1
    33    69    68    2
    34   126   125   ar
    35   126   128   ar
    36   121   120    1
    37    54    53    1
    38    67    68    1
    39    67    66    1
    40   125   127   ar
    41   135   136    1
    42   128   129   ar
    43    68    73   am
    44   155   156    1
    45   117   116    2
    46   127   129   ar
    47   120   116   am
    48    53    50    1
    49    52    51    2
    50   116   115    1
    51    73    74    1
    52   156   157    1
    53   156   159    1
    54    47    46    1
    55    47    48    1
    56    76    75    2
    57    51    50    1
    58    51    58   am
    59   160   159    1
    60    50    49    1
    61    74    75    1
    62    74    77    1
    63    46    43    1
    64   157   158    2
    65    80    78    1
    66    63    65    1
    67    63    62    1
    68    58    59    1
    69    59    60    1
    70    59    62    1
    71    61    60    2
    72   115   114    1
    73   115   118    1
    74     1     2    1
    75   119   118    1
    76    48    42    1
    77   111   110    2
    78    78    77    1
    79    78    79    1
    80    62    64    1
    81     2     3    1
    82    43    42    1
    83    43    44    1
    84    45    44    2
    85    33    32    1
    86    28    27    2
    87    42    36   am
    88   110   109    1
    89    31    32    1
    90    31    30    1
    91    29    30    1
    92    29    26    1
    93     3     5   am
    94     3     4    2
    95    27    26    1
    96    27    34   am
    97    36    35    1
    98    36    37    2
    99    25    26    1
   100    25    21   am
   101     5     6    1
   102   109   112    1
   103   109   108    1
   104   112   113    1
   105    35    34    1
   106    35    38    1
   107    40    39    1
   108    23    20    1
   109    23    24    1
   110    20    21    1
   111    20    19    1
   112   102   101    2
   113    21    22    2
   114   108   101   am
   115     6     9    1
   116     6     7    1
   117   101   100    1
   118    39    38    1
   119    39    41    1
   120    10     9    1
   121     7     8    2
   122    90    89    2
   123   100    99    1
   124   100   103    1
   125    89    88    1
   126    86    85    1
   127   104   103    1
   128   104   105    1
   129    14    13    2
   130    18    16    1
   131   106   105    2
   132    91    88    1
   133    91    92    1
   134    88    87    1
   135   105   107   am
   136    11    12    1
   137    15    16    1
   138    15    12    1
   139    15    17    1
   140    85    82    1
   141    13    12    1
   142    92    94   ar
   143    92    93   ar
   144    94    96   ar
   145    81    82    1
   146    82    83    1
   147    93    95   ar
   148    96    97   ar
   149    95    97   ar
   150    83    84    2
   151    97    98    1
