@<TRIPOS>MOLECULE
tmp/2e84A07.pdb
 195 190 0 0 0
SMALL
GASTEIGER

@<TRIPOS>ATOM
      1  N         27.0510   47.8720   44.9160 N.3    17  ILE17      -0.1245
      2  CA        26.6040   49.2380   45.0790 C.3    17  ILE17       0.1561
      3  C         25.3070   49.2500   45.8830 C.2    17  ILE17       0.2260
      4  O         24.2790   48.7310   45.4500 O.2    17  ILE17      -0.2867
      5  CB        26.4020   49.9260   43.7120 C.3    17  ILE17       0.0252
      6  CG1       27.6320   49.6960   42.8320 C.3    17  ILE17       0.0019
      7  CG2       26.2340   51.4170   43.9110 C.3    17  ILE17       0.0019
      8  CD1       27.5080   50.2700   41.4390 C.3    17  ILE17       0.0001
      9  N         23.1710   46.7750   43.5810 N.3    31  VAL31      -0.1231
     10  CA        23.6220   46.4860   42.2330 C.3    31  VAL31       0.1692
     11  C         25.0530   45.9700   42.2220 C.2    31  VAL31       0.2593
     12  O         25.9430   46.5770   42.8120 O.2    31  VAL31      -0.2718
     13  CB        23.5150   47.7320   41.3530 C.3    31  VAL31       0.0266
     14  CG1       24.1510   47.4760   40.0120 C.3    31  VAL31       0.0020
     15  CG2       22.0530   48.0900   41.1680 C.3    31  VAL31       0.0020
     16  N         25.2520   44.8390   41.5460 N.am   32  THR32      -0.1939
     17  CA        26.5480   44.1690   41.4610 C.3    32  THR32       0.2028
     18  C         27.2840   44.6510   40.2190 C.2    32  THR32       0.2642
     19  O         26.8240   44.4340   39.1010 O.2    32  THR32      -0.2714
     20  CB        26.3730   42.6320   41.3600 C.3    32  THR32       0.1808
     21  OG1       25.7530   42.1390   42.5560 O.3    32  THR32      -0.2208
     22  CG2       27.7160   41.9470   41.1620 C.3    32  THR32       0.0379
     23  N         28.4300   45.2940   40.4250 N.am   33  PHE33      -0.1960
     24  CA        29.1410   45.9730   39.3460 C.3    33  PHE33       0.1756
     25  C         30.5170   45.3430   39.1350 C.2    33  PHE33       0.2461
     26  O         31.3990   45.4830   39.9740 O.2    33  PHE33      -0.2730
     27  CB        29.2760   47.4590   39.6930 C.3    33  PHE33       0.0574
     28  CG        30.1050   48.2420   38.7230 C.ar   33  PHE33      -0.0200
     29  CD1       29.5260   48.8070   37.5910 C.ar   33  PHE33      -0.0042
     30  CD2       31.4710   48.4290   38.9450 C.ar   33  PHE33      -0.0042
     31  CE1       30.2930   49.5520   36.6890 C.ar   33  PHE33      -0.0003
     32  CE2       32.2520   49.1750   38.0450 C.ar   33  PHE33      -0.0003
     33  CZ        31.6580   49.7370   36.9160 C.ar   33  PHE33      -0.0000
     34  N         30.7150   44.6420   38.0020 N.am   34  PRO34      -0.2727
     35  CA        31.9910   43.9830   37.6790 C.3    34  PRO34       0.1402
     36  C         33.0540   44.9570   37.1560 C.2    34  PRO34       0.2269
     37  O         33.1870   45.1770   35.9540 O.2    34  PRO34      -0.2865
     38  CB        31.5950   42.9420   36.6360 C.3    34  PRO34       0.0296
     39  CG        30.4400   43.5690   35.9330 C.3    34  PRO34       0.0237
     40  CD        29.7070   44.4180   36.9490 C.3    34  PRO34       0.0939
     41  N         35.7240   44.3410   34.2600 N.3    37  ARG37      -0.1231
     42  CA        35.0840   44.2310   32.9580 C.3    37  ARG37       0.1694
     43  C         34.9150   45.6190   32.3710 C.2    37  ARG37       0.2592
     44  O         35.1540   45.8380   31.1870 O.2    37  ARG37      -0.2718
     45  CB        33.7220   43.5410   33.0950 C.3    37  ARG37       0.0321
     46  CG        33.8430   42.0550   33.4330 C.3    37  ARG37       0.0489
     47  CD        32.5010   41.3320   33.4620 C.3    37  ARG37       0.2205
     48  NE        31.7180   41.5680   32.2540 N.pl3  37  ARG37      -0.0865
     49  CZ        30.4540   41.1870   32.0950 C.cat  37  ARG37       0.5346
     50  NH1       29.8230   40.5440   33.0730 N.pl3  37  ARG37       0.1354
     51  NH2       29.8150   41.4610   30.9610 N.pl3  37  ARG37       0.1354
     52  N         34.5220   46.5630   33.2150 N.am   38  HIS38      -0.1976
     53  CA        34.2810   47.9210   32.7790 C.3    38  HIS38       0.1656
     54  C         35.5290   48.7050   32.4060 C.2    38  HIS38       0.2291
     55  O         35.5320   49.4210   31.4050 O.2    38  HIS38      -0.2864
     56  CB        33.5280   48.6790   33.8550 C.3    38  HIS38       0.0771
     57  CG        32.0780   48.3440   33.9060 C.ar   38  HIS38       0.0820
     58  ND1       31.5770   47.3300   34.6940 N.ar   38  HIS38      -0.2267
     59  CD2       31.0190   48.8790   33.2580 C.ar   38  HIS38       0.1154
     60  CE1       30.2700   47.2550   34.5290 C.ar   38  HIS38       0.1986
     61  NE2       29.9070   48.1840   33.6630 N.ar   38  HIS38      -0.2212
     62  N         37.0170   47.4430   29.1930 N.3    41  ALA41      -0.1231
     63  CA        36.1980   47.8230   28.0520 C.3    41  ALA41       0.1694
     64  C         36.4610   49.2880   27.6990 C.2    41  ALA41       0.2591
     65  O         36.4010   49.6760   26.5310 O.2    41  ALA41      -0.2718
     66  CB        34.7180   47.6010   28.3720 C.3    41  ALA41       0.0304
     67  N         36.7630   50.0980   28.7090 N.am   42  VAL42      -0.1980
     68  CA        37.0020   51.5190   28.4900 C.3    42  VAL42       0.1595
     69  C         38.4190   51.7900   27.9790 C.2    42  VAL42       0.2287
     70  O         38.6200   52.6140   27.0920 O.2    42  VAL42      -0.2864
     71  CB        36.7490   52.3230   29.7880 C.3    42  VAL42       0.0276
     72  CG1       37.3210   53.7300   29.6730 C.3    42  VAL42       0.0022
     73  CG2       35.2460   52.3870   30.0600 C.3    42  VAL42       0.0022
     74  N         36.6320   58.6640   32.6870 N.3    54  THR54      -0.1203
     75  CA        35.2940   58.3840   32.1910 C.3    54  THR54       0.1994
     76  C         34.2690   58.2990   33.3200 C.2    54  THR54       0.2618
     77  O         33.1400   58.7530   33.1580 O.2    54  THR54      -0.2717
     78  CB        35.2460   57.0600   31.4010 C.3    54  THR54       0.1784
     79  OG1       36.1700   57.1100   30.3050 O.3    54  THR54      -0.2211
     80  CG2       33.8530   56.8270   30.8630 C.3    54  THR54       0.0376
     81  N         34.6590   57.7250   34.4570 N.am   55  CYS55      -0.1969
     82  CA        33.7200   57.4880   35.5570 C.3    55  CYS55       0.1712
     83  C         34.1480   58.1030   36.8920 C.2    55  CYS55       0.2296
     84  O         33.3650   58.1630   37.8500 O.2    55  CYS55      -0.2864
     85  CB        33.5170   55.9930   35.7720 C.3    55  CYS55       0.0983
     86  SG        32.9310   55.0510   34.3350 S.3    55  CYS55      -0.0798
     87  N         31.6050   57.1790   42.0350 N.3    68  PHE68      -0.1227
     88  CA        31.1430   57.1720   40.6420 C.3    68  PHE68       0.1736
     89  C         30.4330   58.4660   40.2510 C.2    68  PHE68       0.2595
     90  O         29.4550   58.8750   40.8900 O.2    68  PHE68      -0.2718
     91  CB        30.2000   55.9930   40.3900 C.3    68  PHE68       0.0547
     92  CG        29.6770   55.9240   38.9820 C.ar   68  PHE68      -0.0202
     93  CD1       30.5300   55.6440   37.9210 C.ar   68  PHE68      -0.0042
     94  CD2       28.3230   56.1190   38.7180 C.ar   68  PHE68      -0.0042
     95  CE1       30.0480   55.5580   36.6220 C.ar   68  PHE68      -0.0003
     96  CE2       27.8270   56.0330   37.4140 C.ar   68  PHE68      -0.0003
     97  CZ        28.6930   55.7520   36.3660 C.ar   68  PHE68      -0.0000
     98  N         30.9430   59.0990   39.1970 N.am   69  MET69      -0.1979
     99  CA        30.3470   60.3070   38.6410 C.3    69  MET69       0.1605
    100  C         29.9620   61.3210   39.7160 C.2    69  MET69       0.2287
    101  O         28.8910   61.9270   39.6550 O.2    69  MET69      -0.2864
    102  CB        29.1130   59.9420   37.8130 C.3    69  MET69       0.0413
    103  CG        29.3960   58.9830   36.6780 C.3    69  MET69       0.0598
    104  SD        30.5670   59.6660   35.5040 S.3    69  MET69      -0.1393
    105  CE        29.7410   61.1820   35.0800 C.3    69  MET69       0.0692
    106  N         23.2410   57.5630   39.0200 N.3    83  TYR83      -0.1241
    107  CA        23.4490   56.1890   38.5850 C.3    83  TYR83       0.1605
    108  C         22.6770   55.8200   37.3170 C.2    83  TYR83       0.2264
    109  O         23.2870   55.5000   36.3000 O.2    83  TYR83      -0.2867
    110  CB        23.1260   55.2160   39.7220 C.3    83  TYR83       0.0534
    111  CG        24.2140   55.1620   40.7810 C.ar   83  TYR83      -0.0201
    112  CD1       24.0240   55.7320   42.0400 C.ar   83  TYR83      -0.0009
    113  CD2       25.4370   54.5390   40.5220 C.ar   83  TYR83      -0.0009
    114  CE1       25.0250   55.6830   43.0170 C.ar   83  TYR83       0.0417
    115  CE2       26.4420   54.4820   41.4890 C.ar   83  TYR83       0.0417
    116  CZ        26.2290   55.0550   42.7370 C.ar   83  TYR83       0.1957
    117  OH        27.2060   54.9770   43.7080 O.3    83  TYR83      -0.2866
    118  N         23.7580   57.8150   34.1010 N.3    86  ASN86      -0.1225
    119  CA        25.0980   57.5530   33.5790 C.3    86  ASN86       0.1785
    120  C         25.3440   56.0760   33.2750 C.2    86  ASN86       0.2597
    121  O         26.0310   55.7390   32.3110 O.2    86  ASN86      -0.2718
    122  CB        26.1570   58.0690   34.5590 C.3    86  ASN86       0.1169
    123  CG        26.1550   59.5840   34.6660 C.2    86  ASN86       0.2627
    124  OD1       26.6870   60.2780   33.7970 O.2    86  ASN86      -0.2716
    125  ND2       25.5470   60.1070   35.7300 N.am   86  ASN86      -0.0877
    126  N         24.7670   55.2050   34.0950 N.am   87  CYS87      -0.1970
    127  CA        24.8760   53.7620   33.9000 C.3    87  CYS87       0.1712
    128  C         24.0820   53.2900   32.6880 C.2    87  CYS87       0.2296
    129  O         24.6340   52.6700   31.7800 O.2    87  CYS87      -0.2864
    130  CB        24.3780   53.0310   35.1450 C.3    87  CYS87       0.0983
    131  SG        25.2250   53.5260   36.6730 S.3    87  CYS87      -0.0798
    132  N         25.2570   55.2650   29.2850 N.3    90  CYS90      -0.1221
    133  CA        26.3340   54.6900   28.4850 C.3    90  CYS90       0.1808
    134  C         25.9410   53.3650   27.8430 C.2    90  CYS90       0.2601
    135  O         26.3520   53.0650   26.7180 O.2    90  CYS90      -0.2717
    136  CB        27.5870   54.4910   29.3450 C.3    90  CYS90       0.0970
    137  SG        28.9330   53.5210   28.5740 S.3    90  CYS90      -0.0800
    138  N         25.1510   52.5680   28.5480 N.am   91  HIS91      -0.1975
    139  CA        24.7380   51.2930   27.9880 C.3    91  HIS91       0.1656
    140  C         23.8820   51.5240   26.7590 C.2    91  HIS91       0.2291
    141  O         23.9840   50.7900   25.7740 O.2    91  HIS91      -0.2864
    142  CB        23.9640   50.4640   29.0200 C.3    91  HIS91       0.0771
    143  CG        24.8160   49.9630   30.1380 C.ar   91  HIS91       0.0820
    144  ND1       24.2930   49.4680   31.3110 N.ar   91  HIS91      -0.2267
    145  CD2       26.1620   49.9130   30.2770 C.ar   91  HIS91       0.1154
    146  CE1       25.2780   49.1370   32.1270 C.ar   91  HIS91       0.1986
    147  NE2       26.4230   49.3970   31.5220 N.ar   91  HIS91      -0.2212
    148  N         26.0330   52.7610   23.6870 N.3    94  GLN94      -0.1245
    149  CA        26.8750   51.6790   23.2010 C.3    94  GLN94       0.1566
    150  C         26.0600   50.6390   22.4450 C.2    94  GLN94       0.2260
    151  O         26.5270   50.0740   21.4550 O.2    94  GLN94      -0.2867
    152  CB        27.6130   51.0240   24.3670 C.3    94  GLN94       0.0367
    153  CG        28.6440   51.9360   25.0010 C.3    94  GLN94       0.0905
    154  CD        29.7210   51.1730   25.7390 C.2    94  GLN94       0.2608
    155  OE1       29.4310   50.3940   26.6420 O.2    94  GLN94      -0.2717
    156  NE2       30.9730   51.3910   25.3560 N.am   94  GLN94      -0.0878
    157  N         28.5910   45.2300   22.5020 N.3   100  LYS100     -0.1231
    158  CA        28.2380   44.4450   23.6800 C.3   100  LYS100      0.1693
    159  C         28.2760   45.4020   24.8690 C.2   100  LYS100      0.2593
    160  O         29.2500   46.1280   25.0430 O.2   100  LYS100     -0.2718
    161  CB        29.2810   43.3300   23.8490 C.3   100  LYS100      0.0285
    162  CG        29.1360   42.4060   25.0510 C.3   100  LYS100      0.0035
    163  CD        30.4120   41.5700   25.2050 C.3   100  LYS100      0.0206
    164  CE        30.1820   40.2740   25.9830 C.3   100  LYS100      0.1093
    165  NZ        30.1290   40.4620   27.4610 N.3   100  LYS100     -0.1314
    166  N         27.2230   45.4210   25.6810 N.am  101  THR101     -0.1939
    167  CA        27.1520   46.4060   26.7540 C.3   101  THR101      0.2028
    168  C         26.2980   45.9370   27.9380 C.2   101  THR101      0.2643
    169  O         25.9000   44.7720   28.0120 O.2   101  THR101     -0.2714
    170  CB        26.6100   47.7540   26.2130 C.3   101  THR101      0.1808
    171  OG1       26.7850   48.7800   27.1990 O.3   101  THR101     -0.2208
    172  CG2       25.1380   47.6360   25.8660 C.3   101  THR101      0.0379
    173  N         26.0270   46.8440   28.8710 N.am  102  GLY102     -0.1940
    174  CA        25.3030   46.4720   30.0730 C.3   102  GLY102      0.1998
    175  C         23.7970   46.5820   29.9560 C.2   102  GLY102      0.2480
    176  O         23.2790   46.8890   28.8830 O.2   102  GLY102     -0.2729
    177  N         23.0640   46.3390   31.0530 N.am  103  PRO103     -0.2726
    178  CA        21.5990   46.3970   31.1160 C.3   103  PRO103      0.1402
    179  C         21.0230   47.7340   30.6780 C.2   103  PRO103      0.2269
    180  O         21.6060   48.7830   30.9440 O.2   103  PRO103     -0.2865
    181  CB        21.2890   46.1110   32.5850 C.3   103  PRO103      0.0296
    182  CG        22.4550   45.3500   33.0680 C.3   103  PRO103      0.0237
    183  CD        23.6360   45.9460   32.3490 C.3   103  PRO103      0.0939
    184  N         18.4670   42.9530   36.1800 N.3   110  SER110     -0.1202
    185  CA        19.7430   42.6560   35.5490 C.3   110  SER110      0.2020
    186  C         20.8860   43.4500   36.1880 C.2   110  SER110      0.2619
    187  O         22.0160   42.9740   36.2460 O.2   110  SER110     -0.2717
    188  CB        19.6630   42.9480   34.0530 C.3   110  SER110      0.2103
    189  OG        20.6410   42.2040   33.3520 O.3   110  SER110     -0.2182
    190  N         20.5860   44.6550   36.6650 N.am  111  CYS111     -0.1969
    191  CA        21.5150   45.3990   37.5110 C.3   111  CYS111      0.1712
    192  C         21.2100   45.1080   38.9760 C.2   111  CYS111      0.2296
    193  O         22.1180   44.9340   39.7830 O.2   111  CYS111     -0.2864
    194  CB        21.3800   46.9050   37.2780 C.3   111  CYS111      0.0983
    195  SG        22.2030   47.5950   35.8000 S.3   111  CYS111     -0.0798
@<TRIPOS>BOND
     1   151   150    2
     2   150   149    1
     3   157   158    1
     4   149   148    1
     5   149   152    1
     6   158   161    1
     7   158   159    1
     8   161   162    1
     9   152   153    1
    10   159   160    2
    11   159   166   am
    12   153   154    1
    13   162   163    1
    14   163   164    1
    15   156   154   am
    16   166   167    1
    17   154   155    2
    18   141   140    2
    19   172   170    1
    20   164   165    1
    21   170   167    1
    22   170   171    1
    23    65    64    2
    24   135   134    2
    25   167   168    1
    26   140   139    1
    27    70    69    2
    28    64    63    1
    29    64    67   am
    30   134   133    1
    31   134   138   am
    32   168   169    2
    33   168   173   am
    34    69    68    1
    35   139   138    1
    36   139   142    1
    37    63    66    1
    38    63    62    1
    39   133   132    1
    40   133   136    1
    41    68    67    1
    42    68    71    1
    43   137   136    1
    44   173   174    1
    45   176   175    2
    46   142   143    1
    47    72    71    1
    48    71    73    1
    49   175   174    1
    50   175   177   am
    51   143   145   ar
    52   143   144   ar
    53   145   147   ar
    54    79    78    1
    55   179   180    2
    56   179   178    1
    57    80    78    1
    58    51    49    1
    59   177   178    1
    60   177   183    1
    61   178   181    1
    62    44    43    2
    63   144   146   ar
    64    78    75    1
    65    55    54    2
    66   147   146   ar
    67   129   128    2
    68    49    48    2
    69    49    50    1
    70    75    74    1
    71    75    76    1
    72    48    47    1
    73   121   120    2
    74   183   182    1
    75    43    42    1
    76    43    52   am
    77    54    53    1
    78   181   182    1
    79   128   127    1
    80    53    52    1
    81    53    56    1
    82    42    45    1
    83    42    41    1
    84    45    46    1
    85    77    76    2
    86    59    61   ar
    87    59    57   ar
    88   120   119    1
    89   120   126   am
    90    76    81   am
    91   189   188    1
    92    46    47    1
    93   119   118    1
    94   119   122    1
    95    61    60   ar
    96   124   123    2
    97    56    57    1
    98   127   126    1
    99   127   130    1
   100    57    58   ar
   101   188   185    1
   102    86    85    1
   103    81    82    1
   104    60    58   ar
   105   122   123    1
   106   123   125   am
   107   105   104    1
   108   130   131    1
   109   104   103    1
   110   185   184    1
   111   185   186    1
   112    82    85    1
   113    82    83    1
   114   195   194    1
   115    39    38    1
   116    39    40    1
   117    37    36    2
   118   186   187    2
   119   186   190   am
   120   109   108    2
   121    97    95   ar
   122    97    96   ar
   123    95    93   ar
   124    38    35    1
   125   190   191    1
   126   103   102    1
   127    31    33   ar
   128    31    29   ar
   129    83    84    2
   130    33    32   ar
   131    40    34    1
   132    36    35    1
   133   194   191    1
   134   108   107    1
   135    96    94   ar
   136   191   192    1
   137    29    28   ar
   138    35    34    1
   139   102    99    1
   140    93    92   ar
   141    34    25   am
   142    32    30   ar
   143   107   106    1
   144   107   110    1
   145    99    98    1
   146    99   100    1
   147    94    92   ar
   148    28    30   ar
   149    28    27    1
   150   192   193    2
   151    92    91    1
   152    19    18    2
   153    25    24    1
   154    25    26    2
   155    98    89   am
   156    24    27    1
   157    24    23    1
   158   101   100    2
   159   110   111    1
   160    14    13    1
   161    18    23   am
   162    18    17    1
   163    89    88    1
   164    89    90    2
   165    91    88    1
   166   113   111   ar
   167   113   115   ar
   168    88    87    1
   169   111   112   ar
   170    22    20    1
   171    15    13    1
   172    13    10    1
   173    20    17    1
   174    20    21    1
   175     8     6    1
   176    17    16    1
   177   115   116   ar
   178    16    11   am
   179   112   114   ar
   180    11    10    1
   181    11    12    2
   182    10     9    1
   183   116   114   ar
   184   116   117    1
   185     6     5    1
   186     5     7    1
   187     5     2    1
   188     1     2    1
   189     2     3    1
   190     4     3    2
