@<TRIPOS>MOLECULE
tmp/2e84A10.pdb
 169 165 0 0 0
SMALL
GASTEIGER

@<TRIPOS>ATOM
      1  N         43.4670   64.8320   43.0120 N.3    63  LYS63      -0.1245
      2  CA        43.3040   63.4920   43.5680 C.3    63  LYS63       0.1561
      3  C         42.0070   62.8600   43.0700 C.2    63  LYS63       0.2260
      4  O         40.9180   63.3250   43.4090 O.2    63  LYS63      -0.2867
      5  CB        43.2760   63.5610   45.0970 C.3    63  LYS63       0.0271
      6  CG        42.6390   62.3440   45.7740 C.3    63  LYS63       0.0035
      7  CD        42.6540   62.4610   47.2970 C.3    63  LYS63       0.0206
      8  CE        41.9290   61.2910   47.9600 C.3    63  LYS63       0.1093
      9  NZ        42.0990   61.2690   49.4480 N.3    63  LYS63      -0.1314
     10  N         55.4500   57.0260   51.2470 N.3   153  CYS153     -0.1221
     11  CA        54.2130   56.3900   51.6800 C.3   153  CYS153      0.1808
     12  C         53.8000   56.7740   53.1150 C.2   153  CYS153      0.2601
     13  O         52.6210   56.9940   53.3940 O.2   153  CYS153     -0.2717
     14  CB        54.3500   54.8640   51.5620 C.3   153  CYS153      0.0970
     15  SG        54.8890   54.2160   49.9360 S.3   153  CYS153     -0.0800
     16  N         54.7730   56.8620   54.0180 N.am  154  HIS154     -0.1961
     17  CA        54.4950   57.0860   55.4380 C.3   154  HIS154      0.1787
     18  C         54.5070   58.5570   55.8530 C.2   154  HIS154      0.2620
     19  O         55.2050   59.3900   55.2620 O.2   154  HIS154     -0.2715
     20  CB        55.5010   56.3200   56.2950 C.3   154  HIS154      0.0785
     21  CG        55.2930   54.8380   56.2950 C.ar  154  HIS154      0.0821
     22  ND1       54.3490   54.2200   57.0860 N.ar  154  HIS154     -0.2267
     23  CD2       55.9330   53.8480   55.6300 C.ar  154  HIS154      0.1154
     24  CE1       54.4190   52.9140   56.9100 C.ar  154  HIS154      0.1986
     25  NE2       55.3710   52.6630   56.0320 N.ar  154  HIS154     -0.2212
     26  N         53.7330   58.8660   56.8880 N.am  155  HIS155     -0.1959
     27  CA        53.5440   60.2430   57.3180 C.3   155  HIS155      0.1787
     28  C         52.8990   60.3230   58.6960 C.2   155  HIS155      0.2620
     29  O         52.1740   59.4230   59.1170 O.2   155  HIS155     -0.2715
     30  CB        52.6790   60.9920   56.2980 C.3   155  HIS155      0.0785
     31  CG        51.4040   60.2880   55.9490 C.ar  155  HIS155      0.0821
     32  ND1       51.1560   59.7800   54.6910 N.ar  155  HIS155     -0.2267
     33  CD2       50.2950   60.0260   56.6840 C.ar  155  HIS155      0.1154
     34  CE1       49.9500   59.2390   54.6660 C.ar  155  HIS155      0.1986
     35  NE2       49.4050   59.3750   55.8630 N.ar  155  HIS155     -0.2212
     36  N         53.1740   61.4050   59.4090 N.am  156  VAL156     -0.1963
     37  CA        52.3980   61.7260   60.5960 C.3   156  VAL156      0.1727
     38  C         51.8300   63.1140   60.3740 C.2   156  VAL156      0.2616
     39  O         52.3510   63.8820   59.5630 O.2   156  VAL156     -0.2715
     40  CB        53.2750   61.7390   61.8660 C.3   156  VAL156      0.0290
     41  CG1       52.3990   61.8160   63.0980 C.3   156  VAL156      0.0023
     42  CG2       54.1430   60.5030   61.9090 C.3   156  VAL156      0.0023
     43  N         50.7630   63.4420   61.0830 N.am  157  TYR157     -0.1974
     44  CA        50.2670   64.8020   61.0400 C.3   157  TYR157      0.1639
     45  C         51.0930   65.6570   61.9900 C.2   157  TYR157      0.2290
     46  O         51.0940   65.4300   63.1990 O.2   157  TYR157     -0.2864
     47  CB        48.7990   64.8320   61.4440 C.3   157  TYR157      0.0560
     48  CG        48.1490   66.1870   61.3040 C.ar  157  TYR157     -0.0198
     49  CD1       47.9890   66.7810   60.0520 C.ar  157  TYR157     -0.0009
     50  CD2       47.6610   66.8630   62.4220 C.ar  157  TYR157     -0.0009
     51  CE1       47.3540   68.0190   59.9170 C.ar  157  TYR157      0.0417
     52  CE2       47.0240   68.0970   62.3020 C.ar  157  TYR157      0.0417
     53  CZ        46.8710   68.6710   61.0480 C.ar  157  TYR157      0.1957
     54  OH        46.2290   69.8880   60.9360 O.3   157  TYR157     -0.2866
     55  N         50.5010   66.9330   56.7930 N.3   164  LEU164     -0.1245
     56  CA        50.9010   65.5370   56.9190 C.3   164  LEU164      0.1561
     57  C         52.3250   65.4550   56.3820 C.2   164  LEU164      0.2260
     58  O         52.6230   66.0320   55.3360 O.2   164  LEU164     -0.2867
     59  CB        49.9650   64.6780   56.0730 C.3   164  LEU164      0.0270
     60  CG        49.5710   63.2660   56.4930 C.3   164  LEU164      0.0019
     61  CD1       49.0750   63.2510   57.9280 C.3   164  LEU164      0.0001
     62  CD2       48.4870   62.7750   55.5390 C.3   164  LEU164      0.0001
     63  N         59.3290   57.2680   62.5080 N.3   170  LYS170     -0.1245
     64  CA        58.0140   57.3090   63.1330 C.3   170  LYS170      0.1561
     65  C         57.0020   56.5470   62.2600 C.2   170  LYS170      0.2260
     66  O         55.7960   56.5600   62.5180 O.2   170  LYS170     -0.2867
     67  CB        57.5760   58.7670   63.3220 C.3   170  LYS170      0.0271
     68  CG        57.1740   59.1110   64.7450 C.3   170  LYS170      0.0035
     69  CD        58.3810   59.1790   65.6790 C.3   170  LYS170      0.0206
     70  CE        57.9650   59.4600   67.1290 C.3   170  LYS170      0.1093
     71  NZ        57.1650   58.3510   67.7520 N.3   170  LYS170     -0.1314
     72  N         54.7340   53.7600   60.6390 N.3   172  ASP172     -0.1225
     73  CA        53.9840   52.6960   61.2820 C.3   172  ASP172      0.1805
     74  C         52.9700   52.1790   60.2660 C.2   172  ASP172      0.2598
     75  O         52.6970   52.8420   59.2680 O.2   172  ASP172     -0.2718
     76  CB        53.2860   53.2430   62.5320 C.3   172  ASP172      0.1424
     77  CG        52.9900   52.1610   63.5610 C.2   172  ASP172      0.3668
     78  OD1       52.6930   52.5060   64.7220 O.co2 172  ASP172     -0.2456
     79  OD2       53.0520   50.9660   63.2110 O.co2 172  ASP172     -0.2456
     80  N         52.4250   50.9910   60.4970 N.am  173  SER173     -0.1938
     81  CA        51.5080   50.4200   59.5250 C.3   173  SER173      0.2055
     82  C         50.2530   51.2960   59.3990 C.2   173  SER173      0.2643
     83  O         49.8160   51.9180   60.3660 O.2   173  SER173     -0.2714
     84  CB        51.1360   48.9820   59.9250 C.3   173  SER173      0.2130
     85  OG        49.8320   48.9050   60.4750 O.3   173  SER173     -0.2179
     86  N         49.6890   51.3460   58.1980 N.am  174  CYS174     -0.1967
     87  CA        48.4860   52.1260   57.9270 C.3   174  CYS174      0.1712
     88  C         47.3440   51.8780   58.9230 C.2   174  CYS174      0.2296
     89  O         46.5300   52.7610   59.1680 O.2   174  CYS174     -0.2864
     90  CB        47.9980   51.8300   56.5060 C.3   174  CYS174      0.0983
     91  SG        49.3380   51.7550   55.2720 S.3   174  CYS174     -0.0798
     92  N         47.4210   51.4200   62.1660 N.3   176  ALA176     -0.1231
     93  CA        47.5780   52.1040   63.4400 C.3   176  ALA176      0.1694
     94  C         46.6490   53.3150   63.4940 C.2   176  ALA176      0.2592
     95  O         46.0160   53.5790   64.5200 O.2   176  ALA176     -0.2718
     96  CB        49.0340   52.5430   63.6240 C.3   176  ALA176      0.0304
     97  N         46.5550   54.0390   62.3790 N.am  177  CYS177     -0.1956
     98  CA        45.7520   55.2550   62.3280 C.3   177  CYS177      0.1843
     99  C         44.5140   55.1550   61.4200 C.2   177  CYS177      0.2625
    100  O         43.5400   55.8810   61.6270 O.2   177  CYS177     -0.2714
    101  CB        46.6200   56.4360   61.8840 C.3   177  CYS177      0.0997
    102  SG        48.1530   56.6920   62.8430 S.3   177  CYS177     -0.0797
    103  N         44.5470   54.2720   60.4190 N.am  178  HIS178     -0.1973
    104  CA        43.4110   54.1190   59.5070 C.3   178  HIS178      0.1656
    105  C         42.5960   52.8840   59.8040 C.2   178  HIS178      0.2291
    106  O         43.1110   51.7720   59.7460 O.2   178  HIS178     -0.2864
    107  CB        43.8770   54.0560   58.0610 C.3   178  HIS178      0.0771
    108  CG        44.5390   55.3100   57.5930 C.ar  178  HIS178      0.0820
    109  ND1       43.8420   56.4780   57.3740 N.ar  178  HIS178     -0.2267
    110  CD2       45.8400   55.5900   57.3340 C.ar  178  HIS178      0.1154
    111  CE1       44.6860   57.4250   57.0020 C.ar  178  HIS178      0.1986
    112  NE2       45.9040   56.9130   56.9720 N.ar  178  HIS178     -0.2212
    113  N         39.0930   63.7190   59.1470 N.3   185  LYS185     -0.1231
    114  CA        39.7310   64.0030   57.8660 C.3   185  LYS185      0.1693
    115  C         40.6410   62.8230   57.5220 C.2   185  LYS185      0.2592
    116  O         41.4610   62.8830   56.6040 O.2   185  LYS185     -0.2718
    117  CB        40.5450   65.3010   57.9580 C.3   185  LYS185      0.0285
    118  CG        40.7660   65.9990   56.6190 C.3   185  LYS185      0.0035
    119  CD        41.3290   67.3970   56.8130 C.3   185  LYS185      0.0206
    120  CE        41.6550   68.0440   55.4790 C.3   185  LYS185      0.1093
    121  NZ        43.1240   68.1550   55.2390 N.3   185  LYS185     -0.1314
    122  N         40.4730   61.7460   58.2800 N.am  186  LYS186     -0.1966
    123  CA        41.3390   60.5830   58.1840 C.3   186  LYS186      0.1713
    124  C         40.5690   59.4460   57.5000 C.2   186  LYS186      0.2458
    125  O         39.6500   58.8690   58.0800 O.2   186  LYS186     -0.2730
    126  CB        41.7790   60.1800   59.5950 C.3   186  LYS186      0.0311
    127  CG        42.8940   59.1700   59.6600 C.3   186  LYS186      0.0038
    128  CD        43.5930   59.2110   61.0150 C.3   186  LYS186      0.0206
    129  CE        42.6100   59.1280   62.1770 C.3   186  LYS186      0.1093
    130  NZ        42.3630   60.4640   62.7900 N.3   186  LYS186     -0.1314
    131  N         40.9330   59.1210   56.2480 N.am  187  PRO187     -0.2727
    132  CA        40.2780   58.0570   55.4820 C.3   187  PRO187      0.1402
    133  C         40.2650   56.7090   56.2040 C.2   187  PRO187      0.2269
    134  O         41.0500   56.4730   57.1230 O.2   187  PRO187     -0.2865
    135  CB        41.0890   57.9960   54.1920 C.3   187  PRO187      0.0296
    136  CG        41.7010   59.3280   54.0760 C.3   187  PRO187      0.0237
    137  CD        42.0210   59.7390   55.4750 C.3   187  PRO187      0.0939
    138  N         42.2170   54.6990   52.0390 N.3   192  ALA192     -0.1231
    139  CA        43.6000   55.1270   52.2070 C.3   192  ALA192      0.1694
    140  C         44.4660   54.3780   51.2140 C.2   192  ALA192      0.2591
    141  O         45.1690   54.9840   50.4080 O.2   192  ALA192     -0.2718
    142  CB        44.0690   54.8530   53.6270 C.3   192  ALA192      0.0304
    143  N         44.3900   53.0540   51.2760 N.am  193  ALA193     -0.1980
    144  CA        45.0750   52.1860   50.3260 C.3   193  ALA193      0.1597
    145  C         44.7220   52.5260   48.8770 C.2   193  ALA193      0.2287
    146  O         45.6040   52.8480   48.0770 O.2   193  ALA193     -0.2864
    147  CB        44.7280   50.7380   50.6120 C.3   193  ALA193      0.0319
    148  N         43.6660   54.9610   47.4070 N.3   195  THR195     -0.1203
    149  CA        44.2020   56.2390   46.9680 C.3   195  THR195      0.1994
    150  C         45.6960   56.1650   46.6790 C.2   195  THR195      0.2618
    151  O         46.1300   56.3320   45.5420 O.2   195  THR195     -0.2717
    152  CB        43.9520   57.3280   48.0210 C.3   195  THR195      0.1784
    153  OG1       42.5440   57.5690   48.1200 O.3   195  THR195     -0.2211
    154  CG2       44.6690   58.6200   47.6430 C.3   195  THR195      0.0376
    155  N         46.4830   55.9050   47.7120 N.am  196  GLN196     -0.1965
    156  CA        47.9270   56.0110   47.5890 C.3   196  GLN196      0.1733
    157  C         48.4620   54.9190   46.6660 C.2   196  GLN196      0.2616
    158  O         49.1960   55.1910   45.7160 O.2   196  GLN196     -0.2715
    159  CB        48.5700   55.9060   48.9730 C.3   196  GLN196      0.0408
    160  CG        49.9250   56.5500   49.0560 C.3   196  GLN196      0.0908
    161  CD        50.6610   56.1900   50.3220 C.2   196  GLN196      0.2608
    162  OE1       51.2880   55.1400   50.4030 O.2   196  GLN196     -0.2717
    163  NE2       50.5930   57.0620   51.3200 N.am  196  GLN196     -0.0878
    164  N         48.0670   53.6840   46.9410 N.am  197  CYS197     -0.1968
    165  CA        48.5850   52.5370   46.2180 C.3   197  CYS197      0.1712
    166  C         48.3350   52.6270   44.7210 C.2   197  CYS197      0.2296
    167  O         49.2770   52.5480   43.9300 O.2   197  CYS197     -0.2864
    168  CB        47.9500   51.2590   46.7580 C.3   197  CYS197      0.0983
    169  SG        47.9660   51.1550   48.5720 S.3   197  CYS197     -0.0798
@<TRIPOS>BOND
     1     1     2    1
     2     3     4    2
     3     3     2    1
     4     2     5    1
     5   167   166    2
     6   166   165    1
     7     5     6    1
     8   151   150    2
     9   158   157    2
    10     6     7    1
    11   165   168    1
    12   165   164    1
    13   157   164   am
    14   157   156    1
    15   150   149    1
    16   150   155   am
    17   168   169    1
    18   149   148    1
    19   149   152    1
    20     7     8    1
    21   156   155    1
    22   156   159    1
    23   154   152    1
    24     8     9    1
    25   152   153    1
    26   146   145    2
    27   145   144    1
    28   159   160    1
    29   160   161    1
    30    15    14    1
    31   161   162    2
    32   161   163   am
    33   144   147    1
    34   144   143    1
    35   141   140    2
    36   140   143   am
    37   140   139    1
    38    10    11    1
    39    14    11    1
    40    11    12    1
    41   138   139    1
    42   139   142    1
    43    12    13    2
    44    12    16   am
    45    16    17    1
    46   136   135    1
    47   136   137    1
    48   135   132    1
    49    34    32   ar
    50    34    35   ar
    51    32    31   ar
    52   121   120    1
    53    19    18    2
    54    91    90    1
    55    58    57    2
    56    17    18    1
    57    17    20    1
    58   137   131    1
    59   120   119    1
    60   132   133    1
    61   132   131    1
    62    62    60    1
    63    23    25   ar
    64    23    21   ar
    65    18    26   am
    66    35    33   ar
    67    31    30    1
    68    31    33   ar
    69    25    24   ar
    70    59    60    1
    71    59    56    1
    72   133   134    2
    73   131   124   am
    74    21    20    1
    75    21    22   ar
    76    30    27    1
    77    57    56    1
    78    60    61    1
    79    90    87    1
    80   116   115    2
    81   118   119    1
    82   118   117    1
    83    55    56    1
    84    26    27    1
    85    24    22   ar
    86   112   111   ar
    87   112   110   ar
    88   111   109   ar
    89    27    28    1
    90   110   108   ar
    91   109   108   ar
    92   124   125    2
    93   124   123    1
    94   115   114    1
    95   115   122   am
    96   108   107    1
    97   114   117    1
    98   114   113    1
    99    87    86    1
   100    87    88    1
   101   107   104    1
   102   123   122    1
   103   123   126    1
   104    86    82   am
   105    28    29    2
   106    28    36   am
   107    88    89    2
   108    75    74    2
   109    82    81    1
   110    82    83    2
   111    36    37    1
   112   104   105    1
   113   104   103    1
   114    81    84    1
   115    81    80    1
   116    39    38    2
   117   126   127    1
   118   127   128    1
   119   106   105    2
   120    51    49   ar
   121    51    53   ar
   122    84    85    1
   123    49    48   ar
   124    74    80   am
   125    74    73    1
   126    38    37    1
   127    38    43   am
   128   103    99   am
   129    37    40    1
   130    72    73    1
   131    54    53    1
   132   128   129    1
   133    44    43    1
   134    44    47    1
   135    44    45    1
   136    53    52   ar
   137    73    76    1
   138    48    47    1
   139    48    50   ar
   140    99   100    2
   141    99    98    1
   142    40    42    1
   143    40    41    1
   144   101    98    1
   145   101   102    1
   146    45    46    2
   147    92    93    1
   148   129   130    1
   149    65    66    2
   150    65    64    1
   151    52    50   ar
   152    98    97    1
   153    97    94   am
   154    63    64    1
   155    76    77    1
   156    64    67    1
   157    79    77   ar
   158    67    68    1
   159    93    94    1
   160    93    96    1
   161    94    95    2
   162    77    78   ar
   163    68    69    1
   164    69    70    1
   165    70    71    1
