@<TRIPOS>MOLECULE
tmp/2e84A13.pdb
 208 199 0 0 0
SMALL
GASTEIGER

@<TRIPOS>ATOM
      1  N         64.0320   45.3470   58.8340 N.3   239  LEU239     -0.1245
      2  CA        63.3990   46.6420   58.6030 C.3   239  LEU239      0.1561
      3  C         63.8790   47.6970   59.6070 C.2   239  LEU239      0.2260
      4  O         63.5640   47.6280   60.7990 O.2   239  LEU239     -0.2867
      5  CB        61.8760   46.4990   58.6680 C.3   239  LEU239      0.0270
      6  CG        61.0610   47.7430   58.3100 C.3   239  LEU239      0.0019
      7  CD1       61.5670   48.3370   57.0020 C.3   239  LEU239      0.0001
      8  CD2       59.5850   47.3680   58.2080 C.3   239  LEU239      0.0001
      9  N         64.1210   51.0360   61.5060 N.3   241  ARG241     -0.1231
     10  CA        63.2250   52.1090   61.9140 C.3   241  ARG241      0.1694
     11  C         63.7050   52.7020   63.2470 C.2   241  ARG241      0.2593
     12  O         62.9690   53.4210   63.9370 O.2   241  ARG241     -0.2718
     13  CB        61.8080   51.5400   62.0420 C.3   241  ARG241      0.0321
     14  CG        60.7080   52.5600   62.1860 C.3   241  ARG241      0.0489
     15  CD        60.4130   52.8140   63.6440 C.3   241  ARG241      0.2205
     16  NE        59.0020   53.0680   63.8720 N.pl3 241  ARG241     -0.0865
     17  CZ        58.4950   53.4910   65.0190 C.cat 241  ARG241      0.5346
     18  NH1       59.2900   53.7150   66.0580 N.pl3 241  ARG241      0.1354
     19  NH2       57.1850   53.6820   65.1270 N.pl3 241  ARG241      0.1354
     20  N         64.9470   52.3850   63.6090 N.am  242  GLY242     -0.1942
     21  CA        65.5320   52.9170   64.8310 C.3   242  GLY242      0.2014
     22  C         65.1870   52.1500   66.0980 C.2   242  GLY242      0.2639
     23  O         65.3100   52.6790   67.1960 O.2   242  GLY242     -0.2714
     24  N         64.7570   50.9010   65.9620 N.am  243  GLN243     -0.1963
     25  CA        64.3480   50.1210   67.1270 C.3   243  GLN243      0.1718
     26  C         65.5400   49.5340   67.8430 C.2   243  GLN243      0.2458
     27  O         66.6170   49.3620   67.2640 O.2   243  GLN243     -0.2730
     28  CB        63.4350   48.9740   66.7240 C.3   243  GLN243      0.0407
     29  CG        62.7500   49.1920   65.4210 C.3   243  GLN243      0.0908
     30  CD        63.5010   48.5880   64.2830 C.2   243  GLN243      0.2608
     31  OE1       63.8060   49.2620   63.3110 O.2   243  GLN243     -0.2717
     32  NE2       63.8010   47.3040   64.3890 N.am  243  GLN243     -0.0878
     33  N         65.3520   49.1910   69.1210 N.am  244  PRO244     -0.2727
     34  CA        66.4280   48.6100   69.9250 C.3   244  PRO244      0.1402
     35  C         66.6920   47.1520   69.5330 C.2   244  PRO244      0.2269
     36  O         65.7640   46.3970   69.2330 O.2   244  PRO244     -0.2865
     37  CB        65.9050   48.7390   71.3540 C.3   244  PRO244      0.0296
     38  CG        64.4240   48.6460   71.2010 C.3   244  PRO244      0.0237
     39  CD        64.0870   49.2860   69.8740 C.3   244  PRO244      0.0939
     40  N         66.3010   45.4440   74.8990 N.3   247  ALA247     -0.1231
     41  CA        65.4650   46.3540   75.6840 C.3   247  ALA247      0.1694
     42  C         65.1450   45.8390   77.0970 C.2   247  ALA247      0.2592
     43  O         64.9580   44.6370   77.3120 O.2   247  ALA247     -0.2718
     44  CB        64.1780   46.6200   74.9330 C.3   247  ALA247      0.0304
     45  N         65.0790   46.7500   78.0620 N.am  248  MET248     -0.1965
     46  CA        64.5700   46.3950   79.3820 C.3   248  MET248      0.1736
     47  C         63.0770   46.7030   79.4720 C.2   248  MET248      0.2616
     48  O         62.6540   47.8640   79.3590 O.2   248  MET248     -0.2715
     49  CB        65.3090   47.1600   80.4870 C.3   248  MET248      0.0427
     50  CG        66.7810   46.8230   80.6220 C.3   248  MET248      0.0599
     51  SD        67.1140   45.0750   80.9280 S.3   248  MET248     -0.1393
     52  CE        66.3690   44.8330   82.5230 C.3   248  MET248      0.0692
     53  N         62.2820   45.6560   79.6690 N.am  249  VAL249     -0.1963
     54  CA        60.8580   45.8260   79.9110 C.3   249  VAL249      0.1727
     55  C         60.7210   45.9530   81.4110 C.2   249  VAL249      0.2616
     56  O         61.1190   45.0530   82.1480 O.2   249  VAL249     -0.2715
     57  CB        60.0540   44.5990   79.4410 C.3   249  VAL249      0.0290
     58  CG1       58.5590   44.9290   79.4080 C.3   249  VAL249      0.0023
     59  CG2       60.5550   44.1390   78.0840 C.3   249  VAL249      0.0023
     60  N         60.1660   47.0730   81.8610 N.am  250  LEU250     -0.1977
     61  CA        60.1910   47.4230   83.2800 C.3   250  LEU250      0.1596
     62  C         58.8180   47.5310   83.9250 C.2   250  LEU250      0.2287
     63  O         57.8260   47.8350   83.2600 O.2   250  LEU250     -0.2864
     64  CB        60.9130   48.7490   83.4720 C.3   250  LEU250      0.0297
     65  CG        62.3530   48.7750   82.9760 C.3   250  LEU250      0.0022
     66  CD1       62.9690   50.1410   83.2600 C.3   250  LEU250      0.0001
     67  CD2       63.1350   47.6690   83.6600 C.3   250  LEU250      0.0001
     68  N         65.0330   41.9570   76.9700 N.3   270  PHE270     -0.1241
     69  CA        64.2810   41.4090   75.8590 C.3   270  PHE270      0.1605
     70  C         65.0440   41.5440   74.5610 C.2   270  PHE270      0.2264
     71  O         65.3600   42.6530   74.1270 O.2   270  PHE270     -0.2867
     72  CB        62.9360   42.1220   75.7350 C.3   270  PHE270      0.0534
     73  CG        62.1350   41.6910   74.5500 C.ar  270  PHE270     -0.0203
     74  CD1       61.6040   40.4090   74.4830 C.ar  270  PHE270     -0.0042
     75  CD2       61.9080   42.5680   73.4980 C.ar  270  PHE270     -0.0042
     76  CE1       60.8540   40.0070   73.3770 C.ar  270  PHE270     -0.0003
     77  CE2       61.1690   42.1830   72.3970 C.ar  270  PHE270     -0.0003
     78  CZ        60.6380   40.8980   72.3320 C.ar  270  PHE270     -0.0000
     79  N         65.1380   42.0280   71.1630 N.3   272  HIS272     -0.1241
     80  CA        64.2090   42.5540   70.1870 C.3   272  HIS272      0.1621
     81  C         64.5650   42.1340   68.7600 C.2   272  HIS272      0.2264
     82  O         63.6940   41.7510   67.9730 O.2   272  HIS272     -0.2867
     83  CB        64.1800   44.0740   70.2940 C.3   272  HIS272      0.0745
     84  CG        63.0830   44.7000   69.5010 C.ar  272  HIS272      0.0817
     85  ND1       63.2390   45.0640   68.1830 N.ar  272  HIS272     -0.2268
     86  CD2       61.7950   44.9690   69.8210 C.ar  272  HIS272      0.1154
     87  CE1       62.0910   45.5280   67.7220 C.ar  272  HIS272      0.1986
     88  NE2       61.1990   45.4800   68.6950 N.ar  272  HIS272     -0.2212
     89  N         63.4860   38.6240   67.8540 N.3   275  HIS275     -0.1226
     90  CA        62.0470   38.4700   67.7090 C.3   275  HIS275      0.1752
     91  C         61.5160   39.1230   66.4450 C.2   275  HIS275      0.2595
     92  O         60.4740   38.7310   65.9300 O.2   275  HIS275     -0.2718
     93  CB        61.3360   39.0710   68.9070 C.3   275  HIS275      0.0759
     94  CG        61.3940   38.2160   70.1240 C.ar  275  HIS275      0.0818
     95  ND1       62.3670   38.3600   71.0860 N.ar  275  HIS275     -0.2268
     96  CD2       60.5800   37.2290   70.5580 C.ar  275  HIS275      0.1154
     97  CE1       62.1480   37.4990   72.0640 C.ar  275  HIS275      0.1986
     98  NE2       61.0680   36.8030   71.7680 N.ar  275  HIS275     -0.2212
     99  N         62.2230   40.1310   65.9530 N.am  276  GLU276     -0.1979
    100  CA        61.8370   40.7490   64.6960 C.3   276  GLU276      0.1602
    101  C         61.9220   39.7100   63.5980 C.2   276  GLU276      0.2287
    102  O         61.0480   39.6150   62.7490 O.2   276  GLU276     -0.2864
    103  CB        62.7680   41.9020   64.3500 C.3   276  GLU276      0.0415
    104  CG        62.5450   43.1580   65.1400 C.3   276  GLU276      0.1163
    105  CD        63.6600   44.1400   64.9180 C.2   276  GLU276      0.3649
    106  OE1       63.9950   44.4080   63.7410 O.co2 276  GLU276     -0.2457
    107  OE2       64.2130   44.6320   65.9250 O.co2 276  GLU276     -0.2457
    108  N         59.2450   36.9230   63.6300 N.3   279  SER279     -0.1217
    109  CA        57.8570   37.3570   63.4920 C.3   279  SER279      0.1889
    110  C         57.5280   37.8620   62.0880 C.2   279  SER279      0.2288
    111  O         58.3810   38.4340   61.4060 O.2   279  SER279     -0.2866
    112  CB        57.5430   38.4450   64.5100 C.3   279  SER279      0.2089
    113  OG        56.1640   38.7500   64.4780 O.3   279  SER279     -0.2183
    114  N         55.3310   40.1660   61.3600 N.3   281  THR281     -0.1203
    115  CA        55.0440   41.5900   61.4010 C.3   281  THR281      0.1994
    116  C         55.4110   42.2080   62.7440 C.2   281  THR281      0.2618
    117  O         55.4660   41.5210   63.7580 O.2   281  THR281     -0.2717
    118  CB        53.5430   41.8680   61.1460 C.3   281  THR281      0.1784
    119  OG1       52.7580   41.1810   62.1300 O.3   281  THR281     -0.2211
    120  CG2       53.1370   41.4100   59.7610 C.3   281  THR281      0.0376
    121  N         55.6480   43.5160   62.7380 N.am  282  CYS282     -0.1969
    122  CA        55.7540   44.2870   63.9710 C.3   282  CYS282      0.1712
    123  C         54.3880   44.3490   64.6870 C.2   282  CYS282      0.2296
    124  O         54.2950   44.1860   65.9110 O.2   282  CYS282     -0.2864
    125  CB        56.2210   45.7050   63.6460 C.3   282  CYS282      0.0983
    126  SG        57.4750   45.8110   62.3240 S.3   282  CYS282     -0.0798
    127  N         52.9150   42.1580   67.6130 N.3   285  CYS285     -0.1221
    128  CA        53.1160   42.4920   69.0130 C.3   285  CYS285      0.1808
    129  C         52.6230   43.9170   69.2710 C.2   285  CYS285      0.2601
    130  O         51.8730   44.1600   70.2170 O.2   285  CYS285     -0.2717
    131  CB        54.6020   42.3700   69.3820 C.3   285  CYS285      0.0970
    132  SG        55.3500   40.7070   69.1930 S.3   285  CYS285     -0.0800
    133  N         53.0450   44.8540   68.4250 N.am  286  HIS286     -0.1975
    134  CA        52.6100   46.2420   68.5360 C.3   286  HIS286      0.1656
    135  C         51.2120   46.4050   67.9610 C.2   286  HIS286      0.2291
    136  O         51.0200   47.0000   66.9020 O.2   286  HIS286     -0.2864
    137  CB        53.5870   47.1520   67.8020 C.3   286  HIS286      0.0771
    138  CG        54.9720   47.1050   68.3630 C.ar  286  HIS286      0.0820
    139  ND1       55.3180   47.7310   69.5420 N.ar  286  HIS286     -0.2267
    140  CD2       56.0840   46.4640   67.9380 C.ar  286  HIS286      0.1154
    141  CE1       56.5820   47.4730   69.8210 C.ar  286  HIS286      0.1986
    142  NE2       57.0690   46.7070   68.8630 N.ar  286  HIS286     -0.2212
    143  N         53.1300   51.1330   66.8430 N.3   290  ILE290     -0.1231
    144  CA        54.4960   50.9040   67.3040 C.3   290  ILE290      0.1692
    145  C         54.8610   51.9290   68.3750 C.2   290  ILE290      0.2592
    146  O         55.1990   53.0760   68.0750 O.2   290  ILE290     -0.2718
    147  CB        55.5260   50.9750   66.1470 C.3   290  ILE290      0.0266
    148  CG1       55.3290   49.7850   65.2060 C.3   290  ILE290      0.0019
    149  CG2       56.9490   50.9550   66.7110 C.3   290  ILE290      0.0020
    150  CD1       56.1940   49.8410   63.9690 C.3   290  ILE290      0.0001
    151  N         54.7600   51.5030   69.6290 N.am  291  ASP291     -0.1960
    152  CA        55.1920   52.2960   70.7680 C.3   291  ASP291      0.1840
    153  C         55.8230   51.3020   71.7380 C.2   291  ASP291      0.2622
    154  O         56.4900   50.3640   71.3180 O.2   291  ASP291     -0.2715
    155  CB        53.9920   53.0010   71.4250 C.3   291  ASP291      0.1450
    156  CG        54.4120   54.0150   72.4970 C.2   291  ASP291      0.3671
    157  OD1       55.6300   54.1540   72.7620 O.co2 291  ASP291     -0.2456
    158  OD2       53.5160   54.6740   73.0740 O.co2 291  ASP291     -0.2456
    159  N         55.6180   51.4960   73.0310 N.am  292  ASN292     -0.1958
    160  CA        56.0620   50.5020   73.9800 C.3   292  ASN292      0.1819
    161  C         54.9260   50.1330   74.9180 C.2   292  ASN292      0.2621
    162  O         54.0340   50.9390   75.1890 O.2   292  ASN292     -0.2715
    163  CB        57.2850   51.0170   74.7500 C.3   292  ASN292      0.1195
    164  CG        56.9410   51.5160   76.1310 C.2   292  ASN292      0.2630
    165  OD1       56.0130   52.3050   76.3110 O.2   292  ASN292     -0.2716
    166  ND2       57.6950   51.0580   77.1230 N.am  292  ASN292     -0.0877
    167  N         54.9660   48.9010   75.4010 N.am  293  CYS293     -0.1954
    168  CA        53.8360   48.3000   76.0930 C.3   293  CYS293      0.1843
    169  C         53.4740   49.0300   77.3920 C.2   293  CYS293      0.2626
    170  O         52.2980   49.1960   77.7210 O.2   293  CYS293     -0.2714
    171  CB        54.1650   46.8340   76.3780 C.3   293  CYS293      0.0997
    172  SG        54.9740   46.0110   74.9620 S.3   293  CYS293     -0.0797
    173  N         54.4880   49.4760   78.1260 N.am  294  THR294     -0.1950
    174  CA        54.2560   50.0600   79.4390 C.3   294  THR294      0.1897
    175  C         53.6540   51.4600   79.3320 C.2   294  THR294      0.2313
    176  O         53.3320   52.0850   80.3400 O.2   294  THR294     -0.2863
    177  CB        55.5640   50.1060   80.2690 C.3   294  THR294      0.1794
    178  OG1       56.6010   50.7310   79.5040 O.3   294  THR294     -0.2208
    179  CG2       55.9950   48.7050   80.6590 C.3   294  THR294      0.0378
    180  N         52.0000   40.3370   79.7140 N.3   314  MET314     -0.1245
    181  CA        53.2020   39.5760   79.4270 C.3   314  MET314      0.1570
    182  C         53.0550   38.0620   79.6420 C.2   314  MET314      0.2261
    183  O         53.9480   37.2950   79.2730 O.2   314  MET314     -0.2867
    184  CB        54.3690   40.1290   80.2540 C.3   314  MET314      0.0387
    185  CG        54.6800   41.5980   79.9720 C.3   314  MET314      0.0595
    186  SD        55.1160   41.9540   78.2430 S.3   314  MET314     -0.1393
    187  CE        55.0030   43.7340   78.2290 C.3   314  MET314      0.0692
    188  N         54.1120   37.2520   76.1470 N.3   323  CYS323     -0.1235
    189  CA        55.3670   36.5080   76.1050 C.3   323  CYS323      0.1677
    190  C         55.1310   35.0120   76.1870 C.2   323  CYS323      0.2270
    191  O         55.3710   34.2570   75.2410 O.2   323  CYS323     -0.2867
    192  CB        56.2630   36.8810   77.2840 C.3   323  CYS323      0.0956
    193  SG        56.6690   38.6300   77.5320 S.3   323  CYS323     -0.0801
    194  N         52.5300   33.5140   73.3910 N.3   326  CYS326     -0.1235
    195  CA        53.0630   33.1860   72.0820 C.3   326  CYS326      0.1677
    196  C         53.9630   31.9470   72.1770 C.2   326  CYS326      0.2270
    197  O         53.8350   31.0130   71.3790 O.2   326  CYS326     -0.2867
    198  CB        53.8460   34.3750   71.5300 C.3   326  CYS326      0.0956
    199  SG        54.4760   34.2040   69.8230 S.3   326  CYS326     -0.0801
    200  N         67.4220   55.9290   78.1170 N.3   380  LYS380     -0.1245
    201  CA        66.9880   54.8680   77.2210 C.3   380  LYS380      0.1561
    202  C         68.2400   54.0970   76.8140 C.2   380  LYS380      0.2260
    203  O         68.1810   52.9120   76.4760 O.2   380  LYS380     -0.2867
    204  CB        66.3140   55.4730   75.9860 C.3   380  LYS380      0.0271
    205  CG        65.3520   54.5420   75.2530 C.3   380  LYS380      0.0035
    206  CD        66.0830   53.5270   74.3730 C.3   380  LYS380      0.0206
    207  CE        65.1060   52.7160   73.5130 C.3   380  LYS380      0.1093
    208  NZ        64.1200   51.9260   74.3170 N.3   380  LYS380     -0.1314
@<TRIPOS>BOND
     1     7     6    1
     2     8     6    1
     3     6     5    1
     4     2     5    1
     5     2     1    1
     6     2     3    1
     7     3     4    2
     8   120   118    1
     9   118   115    1
    10   118   119    1
    11   114   115    1
    12   115   116    1
    13   111   110    2
    14     9    10    1
    15    10    13    1
    16    10    11    1
    17    13    14    1
    18   110   109    1
    19    14    15    1
    20   126   125    1
    21   121   116   am
    22   121   122    1
    23   116   117    2
    24   102   101    2
    25    11    20   am
    26    11    12    2
    27    31    30    2
    28   109   108    1
    29   109   112    1
    30   101   100    1
    31    20    21    1
    32    15    16    1
    33   125   122    1
    34   106   105   ar
    35    16    17    2
    36   150   148    1
    37   122   123    1
    38    30    32   am
    39    30    29    1
    40   103   100    1
    41   103   104    1
    42   113   112    1
    43   123   124    2
    44   100    99    1
    45    21    22    1
    46   105   104    1
    47   105   107   ar
    48    17    19    1
    49    17    18    1
    50   148   147    1
    51    29    28    1
    52    92    91    2
    53    99    91   am
    54    24    22   am
    55    24    25    1
    56    22    23    2
    57   147   149    1
    58   147   144    1
    59    91    90    1
    60    28    25    1
    61   143   144    1
    62   136   135    2
    63    25    26    1
    64    27    26    2
    65   144   145    1
    66   127   128    1
    67    90    89    1
    68    90    93    1
    69    87    85   ar
    70    87    88   ar
    71   137   138    1
    72   137   134    1
    73    26    33   am
    74   140   138   ar
    75   140   142   ar
    76   135   134    1
    77    82    81    2
    78   146   145    2
    79    85    84   ar
    80   138   139   ar
    81   145   151   am
    82   133   134    1
    83   133   129   am
    84    88    86   ar
    85    81    80    1
    86   142   141   ar
    87    93    94    1
    88   128   129    1
    89   128   131    1
    90    33    39    1
    91    33    34    1
    92   132   131    1
    93    36    35    2
    94   129   130    2
    95    84    86   ar
    96    84    83    1
    97    35    34    1
    98   139   141   ar
    99   151   152    1
   100   199   198    1
   101    39    38    1
   102    34    37    1
   103    94    96   ar
   104    94    95   ar
   105    80    83    1
   106    80    79    1
   107    96    98   ar
   108   152   155    1
   109   152   153    1
   110    95    97   ar
   111    38    37    1
   112   154   153    2
   113   197   196    2
   114   155   156    1
   115   198   195    1
   116   153   159   am
   117    98    97   ar
   118   195   196    1
   119   195   194    1
   120    78    77   ar
   121    78    76   ar
   122    77    75   ar
   123   156   157   ar
   124   156   158   ar
   125   159   160    1
   126    76    74   ar
   127    75    73   ar
   128   207   208    1
   129   207   206    1
   130   160   163    1
   131   160   161    1
   132    71    70    2
   133   206   205    1
   134    74    73   ar
   135    73    72    1
   136    70    69    1
   137   163   164    1
   138    40    41    1
   139   161   162    2
   140   161   167   am
   141    44    41    1
   142   172   171    1
   143   191   190    2
   144   205   204    1
   145   167   168    1
   146    41    42    1
   147    72    69    1
   148    69    68    1
   149   204   201    1
   150   168   171    1
   151   168   169    1
   152   189   188    1
   153   189   190    1
   154   189   192    1
   155   164   165    2
   156   164   166   am
   157   203   202    2
   158   202   201    1
   159    42    43    2
   160    42    45   am
   161   201   200    1
   162   192   193    1
   163   169   170    2
   164   169   173   am
   165    45    46    1
   166    59    57    1
   167   173   174    1
   168   187   186    1
   169   186   185    1
   170   183   182    2
   171   175   174    1
   172   175   176    2
   173    48    47    2
   174    46    47    1
   175    46    49    1
   176    58    57    1
   177   181   182    1
   178   181   180    1
   179   181   184    1
   180   174   177    1
   181    57    54    1
   182    47    53   am
   183   178   177    1
   184    53    54    1
   185    54    55    1
   186   185   184    1
   187   177   179    1
   188    49    50    1
   189    50    51    1
   190    51    52    1
   191    55    60   am
   192    55    56    2
   193    60    61    1
   194    65    66    1
   195    65    64    1
   196    65    67    1
   197    63    62    2
   198    61    64    1
   199    61    62    1
