@<TRIPOS>MOLECULE
tmp/2e84A15.pdb
 206 197 0 0 0
SMALL
GASTEIGER

@<TRIPOS>ATOM
      1  N         62.2820   45.6560   79.6690 N.3   249  VAL249     -0.1245
      2  CA        60.8580   45.8260   79.9110 C.3   249  VAL249      0.1561
      3  C         60.7210   45.9530   81.4110 C.2   249  VAL249      0.2260
      4  O         61.1190   45.0530   82.1480 O.2   249  VAL249     -0.2867
      5  CB        60.0540   44.5990   79.4410 C.3   249  VAL249      0.0252
      6  CG1       58.5590   44.9290   79.4080 C.3   249  VAL249      0.0019
      7  CG2       60.5550   44.1390   78.0840 C.3   249  VAL249      0.0019
      8  N         63.2490   42.4360   83.0640 N.3   268  VAL268     -0.1231
      9  CA        63.4340   41.5130   81.9510 C.3   268  VAL268      0.1692
     10  C         64.1650   42.1190   80.7480 C.2   268  VAL268      0.2592
     11  O         63.6660   43.0340   80.0970 O.2   268  VAL268     -0.2718
     12  CB        62.0700   40.9700   81.4740 C.3   268  VAL268      0.0266
     13  CG1       62.2360   40.1770   80.1910 C.3   268  VAL268      0.0020
     14  CG2       61.4540   40.1090   82.5620 C.3   268  VAL268      0.0020
     15  N         65.3440   41.5950   80.4410 N.am  269  ALA269     -0.1966
     16  CA        66.0040   41.9470   79.1960 C.3   269  ALA269      0.1728
     17  C         65.3260   41.2160   78.0340 C.2   269  ALA269      0.2616
     18  O         65.0720   40.0080   78.1010 O.2   269  ALA269     -0.2715
     19  CB        67.4780   41.5840   79.2620 C.3   269  ALA269      0.0334
     20  N         65.0330   41.9570   76.9700 N.am  270  PHE270     -0.1960
     21  CA        64.2810   41.4090   75.8590 C.3   270  PHE270      0.1771
     22  C         65.0440   41.5440   74.5610 C.2   270  PHE270      0.2619
     23  O         65.3600   42.6530   74.1270 O.2   270  PHE270     -0.2715
     24  CB        62.9360   42.1220   75.7350 C.3   270  PHE270      0.0574
     25  CG        62.1350   41.6910   74.5500 C.ar  270  PHE270     -0.0200
     26  CD1       61.6040   40.4090   74.4830 C.ar  270  PHE270     -0.0042
     27  CD2       61.9080   42.5680   73.4980 C.ar  270  PHE270     -0.0042
     28  CE1       60.8540   40.0070   73.3770 C.ar  270  PHE270     -0.0003
     29  CE2       61.1690   42.1830   72.3970 C.ar  270  PHE270     -0.0003
     30  CZ        60.6380   40.8980   72.3320 C.ar  270  PHE270     -0.0000
     31  N         65.3270   40.4060   73.9340 N.am  271  ASN271     -0.1972
     32  CA        66.0410   40.4030   72.6770 C.3   271  ASN271      0.1688
     33  C         65.0860   40.7680   71.5620 C.2   271  ASN271      0.2292
     34  O         64.3300   39.9370   71.0670 O.2   271  ASN271     -0.2864
     35  CB        66.6540   39.0330   72.4060 C.3   271  ASN271      0.1181
     36  CG        67.6190   39.0560   71.2400 C.2   271  ASN271      0.2629
     37  OD1       67.4360   39.8120   70.2770 O.2   271  ASN271     -0.2716
     38  ND2       68.6550   38.2300   71.3170 N.am  271  ASN271     -0.0877
     39  N         66.1010   39.5240   67.6720 N.3   274  VAL274     -0.1231
     40  CA        65.8190   38.1120   67.4010 C.3   274  VAL274      0.1692
     41  C         64.3280   37.8740   67.1590 C.2   274  VAL274      0.2592
     42  O         63.9450   37.0290   66.3580 O.2   274  VAL274     -0.2718
     43  CB        66.3020   37.1910   68.5750 C.3   274  VAL274      0.0266
     44  CG1       65.8500   35.7660   68.3540 C.3   274  VAL274      0.0020
     45  CG2       67.8240   37.2100   68.6630 C.3   274  VAL274      0.0020
     46  N         63.4860   38.6240   67.8540 N.am  275  HIS275     -0.1976
     47  CA        62.0470   38.4700   67.7090 C.3   275  HIS275      0.1656
     48  C         61.5160   39.1230   66.4450 C.2   275  HIS275      0.2291
     49  O         60.4740   38.7310   65.9300 O.2   275  HIS275     -0.2864
     50  CB        61.3360   39.0710   68.9070 C.3   275  HIS275      0.0771
     51  CG        61.3940   38.2160   70.1240 C.ar  275  HIS275      0.0820
     52  ND1       62.3670   38.3600   71.0860 N.ar  275  HIS275     -0.2267
     53  CD2       60.5800   37.2290   70.5580 C.ar  275  HIS275      0.1154
     54  CE1       62.1480   37.4990   72.0640 C.ar  275  HIS275      0.1986
     55  NE2       61.0680   36.8030   71.7680 N.ar  275  HIS275     -0.2212
     56  N         61.8840   36.4220   63.8130 N.3   278  ALA278     -0.1231
     57  CA        61.0010   35.2830   64.0170 C.3   278  ALA278      0.1694
     58  C         59.5310   35.6480   63.8710 C.2   278  ALA278      0.2592
     59  O         58.6600   34.7840   63.9890 O.2   278  ALA278     -0.2718
     60  CB        61.2480   34.6820   65.3920 C.3   278  ALA278      0.0304
     61  N         59.2450   36.9230   63.6300 N.am  279  SER279     -0.1952
     62  CA        57.8570   37.3570   63.4920 C.3   279  SER279      0.1924
     63  C         57.5280   37.8620   62.0880 C.2   279  SER279      0.2314
     64  O         58.3810   38.4340   61.4060 O.2   279  SER279     -0.2863
     65  CB        57.5430   38.4450   64.5100 C.3   279  SER279      0.2116
     66  OG        56.1640   38.7500   64.4780 O.3   279  SER279     -0.2180
     67  N         52.1360   42.4150   65.0090 N.3   284  ALA284     -0.1231
     68  CA        51.7820   41.1930   65.7200 C.3   284  ALA284      0.1694
     69  C         51.8660   41.4500   67.2070 C.2   284  ALA284      0.2592
     70  O         51.0040   41.0150   67.9700 O.2   284  ALA284     -0.2718
     71  CB        52.7250   40.0660   65.3430 C.3   284  ALA284      0.0304
     72  N         52.9150   42.1580   67.6130 N.am  285  CYS285     -0.1970
     73  CA        53.1160   42.4920   69.0130 C.3   285  CYS285      0.1712
     74  C         52.6230   43.9170   69.2710 C.2   285  CYS285      0.2296
     75  O         51.8730   44.1600   70.2170 O.2   285  CYS285     -0.2864
     76  CB        54.6020   42.3700   69.3820 C.3   285  CYS285      0.0983
     77  SG        55.3500   40.7070   69.1930 S.3   285  CYS285     -0.0798
     78  N         52.0000   40.3370   79.7140 N.3   314  MET314     -0.1245
     79  CA        53.2020   39.5760   79.4270 C.3   314  MET314      0.1570
     80  C         53.0550   38.0620   79.6420 C.2   314  MET314      0.2261
     81  O         53.9480   37.2950   79.2730 O.2   314  MET314     -0.2867
     82  CB        54.3690   40.1290   80.2540 C.3   314  MET314      0.0387
     83  CG        54.6800   41.5980   79.9720 C.3   314  MET314      0.0595
     84  SD        55.1160   41.9540   78.2430 S.3   314  MET314     -0.1393
     85  CE        55.0030   43.7340   78.2290 C.3   314  MET314      0.0692
     86  N         48.4500   35.4600   71.8910 N.3   320  MET320     -0.1230
     87  CA        49.6080   35.5630   71.0200 C.3   320  MET320      0.1702
     88  C         50.4100   36.8380   71.2530 C.2   320  MET320      0.2592
     89  O         51.5770   36.9170   70.8820 O.2   320  MET320     -0.2718
     90  CB        49.1580   35.5010   69.5680 C.3   320  MET320      0.0401
     91  CG        48.7100   34.1230   69.1500 C.3   320  MET320      0.0596
     92  SD        50.0510   32.9020   69.2630 S.3   320  MET320     -0.1393
     93  CE        51.1440   33.4400   67.9050 C.3   320  MET320      0.0692
     94  N         49.7800   37.8400   71.8540 N.am  321  LYS321     -0.1966
     95  CA        50.4530   39.0960   72.1200 C.3   321  LYS321      0.1728
     96  C         51.3300   39.0220   73.3660 C.2   321  LYS321      0.2617
     97  O         52.1960   39.8770   73.5630 O.2   321  LYS321     -0.2715
     98  CB        49.4320   40.2200   72.2870 C.3   321  LYS321      0.0311
     99  CG        48.9010   40.7670   70.9860 C.3   321  LYS321      0.0038
    100  CD        47.3740   40.7430   70.9490 C.3   321  LYS321      0.0206
    101  CE        46.7670   41.7660   71.8890 C.3   321  LYS321      0.1093
    102  NZ        45.3400   42.0140   71.5470 N.3   321  LYS321     -0.1314
    103  N         51.1150   38.0140   74.2060 N.am  322  SER322     -0.1936
    104  CA        51.8770   37.9220   75.4410 C.3   322  SER322      0.2055
    105  C         53.1000   37.0010   75.3140 C.2   322  SER322      0.2643
    106  O         53.1180   36.0850   74.4900 O.2   322  SER322     -0.2714
    107  CB        50.9790   37.4380   76.5850 C.3   322  SER322      0.2130
    108  OG        50.9180   36.0260   76.6060 O.3   322  SER322     -0.2179
    109  N         54.1120   37.2520   76.1470 N.am  323  CYS323     -0.1967
    110  CA        55.3670   36.5080   76.1050 C.3   323  CYS323      0.1712
    111  C         55.1310   35.0120   76.1870 C.2   323  CYS323      0.2296
    112  O         55.3710   34.2570   75.2410 O.2   323  CYS323     -0.2864
    113  CB        56.2630   36.8810   77.2840 C.3   323  CYS323      0.0983
    114  SG        56.6690   38.6300   77.5320 S.3   323  CYS323     -0.0798
    115  N         52.5300   33.5140   73.3910 N.3   326  CYS326     -0.1221
    116  CA        53.0630   33.1860   72.0820 C.3   326  CYS326      0.1808
    117  C         53.9630   31.9470   72.1770 C.2   326  CYS326      0.2601
    118  O         53.8350   31.0130   71.3790 O.2   326  CYS326     -0.2717
    119  CB        53.8460   34.3750   71.5300 C.3   326  CYS326      0.0970
    120  SG        54.4760   34.2040   69.8230 S.3   326  CYS326     -0.0800
    121  N         54.8560   31.9350   73.1630 N.am  327  HIS327     -0.1975
    122  CA        55.7510   30.8020   73.3550 C.3   327  HIS327      0.1656
    123  C         54.9590   29.5110   73.5050 C.2   327  HIS327      0.2291
    124  O         55.3660   28.4640   72.9850 O.2   327  HIS327     -0.2864
    125  CB        56.6100   30.9980   74.6020 C.3   327  HIS327      0.0771
    126  CG        57.5910   32.1220   74.5010 C.ar  327  HIS327      0.0820
    127  ND1       58.3430   32.5430   75.5750 N.ar  327  HIS327     -0.2267
    128  CD2       57.9670   32.8920   73.4510 C.ar  327  HIS327      0.1154
    129  CE1       59.1440   33.5200   75.1890 C.ar  327  HIS327      0.1986
    130  NE2       58.9370   33.7510   73.9060 N.ar  327  HIS327     -0.2212
    131  N         54.2350   28.4070   70.1330 N.3   330  LYS330     -0.1245
    132  CA        55.3600   28.0010   69.3010 C.3   330  LYS330      0.1561
    133  C         55.6840   26.5510   69.6110 C.2   330  LYS330      0.2260
    134  O         56.2550   25.8240   68.7970 O.2   330  LYS330     -0.2867
    135  CB        56.5700   28.8900   69.5890 C.3   330  LYS330      0.0271
    136  CG        56.4140   30.2970   69.0580 C.3   330  LYS330      0.0035
    137  CD        56.1040   30.2850   67.5600 C.3   330  LYS330      0.0206
    138  CE        55.5960   31.6350   67.0810 C.3   330  LYS330      0.1093
    139  NZ        56.1260   31.9960   65.7340 N.3   330  LYS330     -0.1314
    140  N         64.2530   32.5780   83.7420 N.3   357  VAL357     -0.1231
    141  CA        64.8150   32.6900   82.4000 C.3   357  VAL357      0.1692
    142  C         64.6290   34.1060   81.8590 C.2   357  VAL357      0.2592
    143  O         65.5530   34.6950   81.2950 O.2   357  VAL357     -0.2718
    144  CB        64.1630   31.6870   81.4260 C.3   357  VAL357      0.0266
    145  CG1       64.6860   31.9140   80.0100 C.3   357  VAL357      0.0020
    146  CG2       64.4740   30.2680   81.8660 C.3   357  VAL357      0.0020
    147  N         63.4300   34.6530   82.0380 N.am  358  CYS358     -0.1970
    148  CA        63.1630   36.0300   81.6490 C.3   358  CYS358      0.1712
    149  C         63.5420   36.9930   82.7660 C.2   358  CYS358      0.2296
    150  O         64.1980   38.0010   82.5200 O.2   358  CYS358     -0.2864
    151  CB        61.6880   36.1980   81.2960 C.3   358  CYS358      0.0983
    152  SG        61.1390   35.2630   79.8250 S.3   358  CYS358     -0.0798
    153  N         73.6750   35.3540   79.3430 N.3   394  ARG394     -0.1245
    154  CA        72.6950   34.2850   79.4920 C.3   394  ARG394      0.1563
    155  C         73.2990   32.9170   79.2150 C.2   394  ARG394      0.2260
    156  O         74.1040   32.7580   78.2970 O.2   394  ARG394     -0.2867
    157  CB        71.5350   34.5380   78.5420 C.3   394  ARG394      0.0307
    158  CG        70.2280   33.9760   78.9870 C.3   394  ARG394      0.0489
    159  CD        69.1020   34.7570   78.3540 C.3   394  ARG394      0.2205
    160  NE        69.4510   35.1840   77.0040 N.pl3 394  ARG394     -0.0865
    161  CZ        68.5920   35.7250   76.1480 C.cat 394  ARG394      0.5346
    162  NH1       67.3290   35.9040   76.5130 N.pl3 394  ARG394      0.1354
    163  NH2       68.9940   36.0830   74.9280 N.pl3 394  ARG394      0.1354
    164  N         67.1230   25.4840   68.0040 N.3   440  ASP440     -0.1225
    165  CA        65.9930   26.3590   68.2850 C.3   440  ASP440      0.1805
    166  C         66.2840   27.1560   69.5450 C.2   440  ASP440      0.2598
    167  O         66.5580   26.5860   70.6000 O.2   440  ASP440     -0.2718
    168  CB        64.7220   25.5230   68.4780 C.3   440  ASP440      0.1424
    169  CG        63.4780   26.3730   68.6630 C.2   440  ASP440      0.3668
    170  OD1       62.7800   26.6160   67.6570 O.co2 440  ASP440     -0.2456
    171  OD2       63.1930   26.7940   69.8100 O.co2 440  ASP440     -0.2456
    172  N         66.2150   28.4780   69.4250 N.am  441  LYS441     -0.1966
    173  CA        66.5490   29.3730   70.5250 C.3   441  LYS441      0.1728
    174  C         65.5660   29.3110   71.7010 C.2   441  LYS441      0.2616
    175  O         65.9670   29.4800   72.8490 O.2   441  LYS441     -0.2715
    176  CB        66.6560   30.8170   70.0110 C.3   441  LYS441      0.0311
    177  CG        67.9750   31.1730   69.3150 C.3   441  LYS441      0.0038
    178  CD        68.1940   30.3880   68.0360 C.3   441  LYS441      0.0206
    179  CE        68.4450   31.3210   66.8580 C.3   441  LYS441      0.1093
    180  NZ        69.3910   32.4260   67.1970 N.3   441  LYS441     -0.1314
    181  N         64.2850   29.0760   71.4260 N.am  442  LEU442     -0.1977
    182  CA        63.2960   29.0050   72.4980 C.3   442  LEU442      0.1596
    183  C         63.5750   27.7720   73.3320 C.2   442  LEU442      0.2287
    184  O         63.5350   27.8110   74.5610 O.2   442  LEU442     -0.2864
    185  CB        61.8800   28.9080   71.9300 C.3   442  LEU442      0.0297
    186  CG        60.9160   30.0770   72.1650 C.3   442  LEU442      0.0022
    187  CD1       59.5370   29.7050   71.6070 C.3   442  LEU442      0.0001
    188  CD2       60.8380   30.4190   73.6570 C.3   442  LEU442      0.0001
    189  N         67.1100   28.0220   75.3530 N.3   445  THR445     -0.1203
    190  CA        67.1610   28.9990   76.4320 C.3   445  THR445      0.1994
    191  C         66.2680   28.5710   77.5940 C.2   445  THR445      0.2617
    192  O         66.5710   28.8250   78.7590 O.2   445  THR445     -0.2717
    193  CB        66.7070   30.3790   75.9250 C.3   445  THR445      0.1784
    194  OG1       67.6850   30.8920   75.0150 O.3   445  THR445     -0.2211
    195  CG2       66.5240   31.3480   77.0780 C.3   445  THR445      0.0376
    196  N         65.1680   27.9080   77.2760 N.am  446  PHE446     -0.1975
    197  CA        64.1950   27.5580   78.2920 C.3   446  PHE446      0.1639
    198  C         64.4210   26.1740   78.8540 C.2   446  PHE446      0.2290
    199  O         63.9090   25.8440   79.9260 O.2   446  PHE446     -0.2864
    200  CB        62.7710   27.6890   77.7300 C.3   446  PHE446      0.0560
    201  CG        62.1930   29.0690   77.8850 C.ar  446  PHE446     -0.0200
    202  CD1       62.2070   29.9700   76.8210 C.ar  446  PHE446     -0.0042
    203  CD2       61.6720   29.4850   79.1120 C.ar  446  PHE446     -0.0042
    204  CE1       61.7150   31.2620   76.9730 C.ar  446  PHE446     -0.0003
    205  CE2       61.1750   30.7790   79.2790 C.ar  446  PHE446     -0.0003
    206  CZ        61.1970   31.6690   78.2090 C.ar  446  PHE446     -0.0000
@<TRIPOS>BOND
     1    64    63    2
     2    63    62    1
     3    62    61    1
     4    62    65    1
     5    61    58   am
     6    56    57    1
     7    58    59    2
     8    58    57    1
     9    57    60    1
    10    66    65    1
    11    67    68    1
    12    71    68    1
    13    68    69    1
    14   139   138    1
    15    49    48    2
    16    42    41    2
    17    48    47    1
    18   179   180    1
    19   179   178    1
    20   138   137    1
    21    41    40    1
    22    41    46   am
    23    69    72   am
    24    69    70    2
    25    40    39    1
    26    40    43    1
    27   137   136    1
    28    72    73    1
    29   170   169   ar
    30    47    46    1
    31    47    50    1
    32    93    92    1
    33   164   165    1
    34   178   177    1
    35   165   168    1
    36   165   166    1
    37    44    43    1
    38   168   169    1
    39    43    45    1
    40   169   171   ar
    41   134   133    2
    42    50    51    1
    43    73    74    1
    44    73    76    1
    45   136   135    1
    46    91    92    1
    47    91    90    1
    48    77    76    1
    49    74    75    2
    50   132   135    1
    51   132   133    1
    52   132   131    1
    53   177   176    1
    54   172   166   am
    55   172   173    1
    56   166   167    2
    57    90    87    1
    58   120   119    1
    59   176   173    1
    60    51    53   ar
    61    51    52   ar
    62    37    36    2
    63   173   174    1
    64    53    55   ar
    65    89    88    2
    66   100    99    1
    67   100   101    1
    68    99    98    1
    69    87    88    1
    70    87    86    1
    71    34    33    2
    72    52    54   ar
    73    36    38   am
    74    36    35    1
    75    88    94   am
    76   118   117    2
    77   181   174   am
    78   181   182    1
    79   119   116    1
    80   102   101    1
    81    33    32    1
    82   187   186    1
    83   174   175    2
    84    55    54   ar
    85    94    95    1
    86   185   186    1
    87   185   182    1
    88   116   117    1
    89   116   115    1
    90    95    98    1
    91    95    96    1
    92   186   188    1
    93   117   121   am
    94    30    29   ar
    95    30    28   ar
    96    29    27   ar
    97    35    32    1
    98   182   183    1
    99    32    31    1
   100   124   123    2
   101   121   122    1
   102   183   184    2
   103   122   123    1
   104   122   125    1
   105    96    97    2
   106    96   103   am
   107    28    26   ar
   108   128   130   ar
   109   128   126   ar
   110    27    25   ar
   111   130   129   ar
   112    31    22   am
   113    23    22    2
   114   103   104    1
   115    26    25   ar
   116   106   105    2
   117   126   125    1
   118   126   127   ar
   119    25    24    1
   120    22    21    1
   121   163   161    1
   122   194   193    1
   123   129   127   ar
   124   112   111    2
   125   105   104    1
   126   105   109   am
   127   189   190    1
   128   104   107    1
   129    24    21    1
   130    21    20    1
   131   193   190    1
   132   193   195    1
   133   110   109    1
   134   110   111    1
   135   110   113    1
   136   161   162    1
   137   161   160    2
   138   190   191    1
   139   107   108    1
   140   202   204   ar
   141   202   201   ar
   142    20    17   am
   143   204   206   ar
   144   160   159    1
   145   196   191   am
   146   196   197    1
   147   113   114    1
   148   191   192    2
   149   200   201    1
   150   200   197    1
   151   201   203   ar
   152    17    18    2
   153    17    16    1
   154     7     5    1
   155   206   205   ar
   156    85    84    1
   157    84    83    1
   158   197   198    1
   159   156   155    2
   160   159   158    1
   161   157   158    1
   162   157   154    1
   163   198   199    2
   164   203   205   ar
   165    16    19    1
   166    16    15    1
   167   155   154    1
   168    81    80    2
   169   153   154    1
   170     6     5    1
   171    79    80    1
   172    79    78    1
   173    79    82    1
   174     5     2    1
   175     1     2    1
   176   152   151    1
   177     2     3    1
   178    83    82    1
   179   145   144    1
   180    11    10    2
   181    13    12    1
   182    15    10   am
   183    10     9    1
   184   143   142    2
   185   151   148    1
   186     3     4    2
   187   144   146    1
   188   144   141    1
   189    12     9    1
   190    12    14    1
   191   148   147    1
   192   148   149    1
   193   142   147   am
   194   142   141    1
   195     9     8    1
   196   141   140    1
   197   150   149    2
