@<TRIPOS>MOLECULE
tmp/2e84A11.pdb
 187 177 0 0 0
SMALL
GASTEIGER

@<TRIPOS>ATOM
      1  N         44.8260   41.8640   50.5240 N.3   124  ILE124     -0.1231
      2  CA        46.2520   41.9740   50.2300 C.3   124  ILE124      0.1692
      3  C         46.9040   43.0040   51.1560 C.2   124  ILE124      0.2593
      4  O         46.2510   43.9670   51.5740 O.2   124  ILE124     -0.2718
      5  CB        46.4900   42.4230   48.7630 C.3   124  ILE124      0.0266
      6  CG1       47.9800   42.2990   48.4140 C.3   124  ILE124      0.0019
      7  CG2       46.0220   43.8850   48.5770 C.3   124  ILE124      0.0020
      8  CD1       48.3680   42.9080   47.0640 C.3   124  ILE124      0.0001
      9  N         48.1860   42.7930   51.4620 N.am  125  GLY125     -0.1942
     10  CA        48.9920   43.7740   52.1810 C.3   125  GLY125      0.2014
     11  C         50.4570   43.6330   51.7870 C.2   125  GLY125      0.2638
     12  O         50.7850   42.8270   50.9170 O.2   125  GLY125     -0.2714
     13  N         51.3540   44.3950   52.4060 N.am  126  LEU126     -0.1977
     14  CA        52.7840   44.1950   52.1500 C.3   126  LEU126      0.1596
     15  C         53.4720   43.4160   53.2860 C.2   126  LEU126      0.2287
     16  O         53.8830   43.9980   54.2970 O.2   126  LEU126     -0.2864
     17  CB        53.4950   45.5440   51.9470 C.3   126  LEU126      0.0297
     18  CG        52.8430   46.6280   51.0750 C.3   126  LEU126      0.0022
     19  CD1       53.8330   47.7490   50.8120 C.3   126  LEU126      0.0001
     20  CD2       52.3780   46.0270   49.7650 C.3   126  LEU126      0.0001
     21  N         57.1320   41.8030   50.1110 N.3   130  LEU130     -0.1245
     22  CA        56.5080   42.8130   49.2700 C.3   130  LEU130      0.1561
     23  C         56.9020   44.2090   49.7310 C.2   130  LEU130      0.2260
     24  O         57.1000   45.1150   48.9230 O.2   130  LEU130     -0.2867
     25  CB        54.9870   42.6590   49.2960 C.3   130  LEU130      0.0270
     26  CG        54.2490   43.3850   48.1670 C.3   130  LEU130      0.0019
     27  CD1       55.0840   43.3680   46.8990 C.3   130  LEU130      0.0001
     28  CD2       52.9070   42.7130   47.9340 C.3   130  LEU130      0.0001
     29  N         60.3640   44.9990   48.6060 N.3   133  ARG133     -0.1231
     30  CA        60.3950   45.2420   47.1680 C.3   133  ARG133      0.1694
     31  C         60.0800   46.7020   46.8240 C.2   133  ARG133      0.2592
     32  O         60.4900   47.1960   45.7830 O.2   133  ARG133     -0.2718
     33  CB        59.4150   44.2990   46.4540 C.3   133  ARG133      0.0321
     34  CG        59.7650   42.8170   46.6080 C.3   133  ARG133      0.0489
     35  CD        58.9250   41.9300   45.7010 C.3   133  ARG133      0.2205
     36  NE        58.7740   42.5150   44.3740 N.pl3 133  ARG133     -0.0865
     37  CZ        57.8430   42.1530   43.4990 C.cat 133  ARG133      0.5346
     38  NH1       56.9780   41.1950   43.8060 N.pl3 133  ARG133      0.1354
     39  NH2       57.7570   42.7720   42.3300 N.pl3 133  ARG133      0.1354
     40  N         59.3550   47.3820   47.7070 N.am  134  HIS134     -0.1976
     41  CA        59.0590   48.8030   47.5540 C.3   134  HIS134      0.1656
     42  C         60.1530   49.6660   48.1650 C.2   134  HIS134      0.2291
     43  O         60.5480   50.6790   47.5950 O.2   134  HIS134     -0.2864
     44  CB        57.7430   49.1400   48.2400 C.3   134  HIS134      0.0771
     45  CG        56.5480   48.5230   47.5880 C.ar  134  HIS134      0.0820
     46  ND1       56.2120   47.1980   47.7570 N.ar  134  HIS134     -0.2267
     47  CD2       55.6100   49.0510   46.7680 C.ar  134  HIS134      0.1154
     48  CE1       55.1160   46.9360   47.0670 C.ar  134  HIS134      0.1986
     49  NE2       54.7310   48.0440   46.4590 N.ar  134  HIS134     -0.2212
     50  N         62.7390   49.5020   45.4230 N.3   137  ALA137     -0.1245
     51  CA        62.4510   49.8420   44.0400 C.3   137  ALA137      0.1562
     52  C         62.9540   51.2520   43.7410 C.2   137  ALA137      0.2260
     53  O         62.4490   52.2420   44.2870 O.2   137  ALA137     -0.2867
     54  CB        60.9620   49.7440   43.7770 C.3   137  ALA137      0.0290
     55  N         62.3640   52.9450   41.3840 N.3   139  ALA139     -0.1231
     56  CA        61.2620   53.7030   40.7860 C.3   139  ALA139      0.1694
     57  C         60.5180   54.5690   41.8180 C.2   139  ALA139      0.2591
     58  O         60.0550   55.6720   41.5090 O.2   139  ALA139     -0.2718
     59  CB        60.2890   52.7490   40.1170 C.3   139  ALA139      0.0304
     60  N         60.3900   54.0540   43.0390 N.am  140  ILE140     -0.1980
     61  CA        59.9410   54.8590   44.1680 C.3   140  ILE140      0.1595
     62  C         61.1450   55.6660   44.6390 C.2   140  ILE140      0.2287
     63  O         62.1050   55.1160   45.1850 O.2   140  ILE140     -0.2864
     64  CB        59.4540   53.9720   45.3310 C.3   140  ILE140      0.0276
     65  CG1       58.3260   53.0590   44.8520 C.3   140  ILE140      0.0022
     66  CG2       58.9870   54.8430   46.4840 C.3   140  ILE140      0.0022
     67  CD1       58.0800   51.8750   45.7560 C.3   140  ILE140      0.0001
     68  N         57.7480   58.3570   50.8100 N.3   152  ALA152     -0.1231
     69  CA        56.8710   58.2060   49.6630 C.3   152  ALA152      0.1694
     70  C         55.4980   57.7020   50.1040 C.2   152  ALA152      0.2592
     71  O         54.4970   57.9190   49.4170 O.2   152  ALA152     -0.2718
     72  CB        57.4890   57.2340   48.6580 C.3   152  ALA152      0.0304
     73  N         55.4500   57.0260   51.2470 N.am  153  CYS153     -0.1970
     74  CA        54.2130   56.3900   51.6800 C.3   153  CYS153      0.1712
     75  C         53.8000   56.7740   53.1150 C.2   153  CYS153      0.2296
     76  O         52.6210   56.9940   53.3940 O.2   153  CYS153     -0.2864
     77  CB        54.3500   54.8640   51.5620 C.3   153  CYS153      0.0983
     78  SG        54.8890   54.2160   49.9360 S.3   153  CYS153     -0.0798
     79  N         49.6890   51.3460   58.1980 N.3   174  CYS174     -0.1235
     80  CA        48.4860   52.1260   57.9270 C.3   174  CYS174      0.1677
     81  C         47.3440   51.8780   58.9230 C.2   174  CYS174      0.2270
     82  O         46.5300   52.7610   59.1680 O.2   174  CYS174     -0.2867
     83  CB        47.9980   51.8300   56.5060 C.3   174  CYS174      0.0956
     84  SG        49.3380   51.7550   55.2720 S.3   174  CYS174     -0.0801
     85  N         44.3900   53.0540   51.2760 N.3   193  ALA193     -0.1245
     86  CA        45.0750   52.1860   50.3260 C.3   193  ALA193      0.1562
     87  C         44.7220   52.5260   48.8770 C.2   193  ALA193      0.2260
     88  O         45.6040   52.8480   48.0770 O.2   193  ALA193     -0.2867
     89  CB        44.7280   50.7380   50.6120 C.3   193  ALA193      0.0290
     90  N         46.4830   55.9050   47.7120 N.3   196  GLN196     -0.1231
     91  CA        47.9270   56.0110   47.5890 C.3   196  GLN196      0.1698
     92  C         48.4620   54.9190   46.6660 C.2   196  GLN196      0.2592
     93  O         49.1960   55.1910   45.7160 O.2   196  GLN196     -0.2718
     94  CB        48.5700   55.9060   48.9730 C.3   196  GLN196      0.0381
     95  CG        49.9250   56.5500   49.0560 C.3   196  GLN196      0.0905
     96  CD        50.6610   56.1900   50.3220 C.2   196  GLN196      0.2608
     97  OE1       51.2880   55.1400   50.4030 O.2   196  GLN196     -0.2717
     98  NE2       50.5930   57.0620   51.3200 N.am  196  GLN196     -0.0878
     99  N         48.0670   53.6840   46.9410 N.am  197  CYS197     -0.1970
    100  CA        48.5850   52.5370   46.2180 C.3   197  CYS197      0.1712
    101  C         48.3350   52.6270   44.7210 C.2   197  CYS197      0.2296
    102  O         49.2770   52.5480   43.9300 O.2   197  CYS197     -0.2864
    103  CB        47.9500   51.2590   46.7580 C.3   197  CYS197      0.0983
    104  SG        47.9660   51.1550   48.5720 S.3   197  CYS197     -0.0798
    105  N         50.0070   55.6160   42.8280 N.3   200  CYS200     -0.1221
    106  CA        51.4270   55.5120   42.5660 C.3   200  CYS200      0.1808
    107  C         51.6960   54.5060   41.4700 C.2   200  CYS200      0.2601
    108  O         52.5390   54.7350   40.6080 O.2   200  CYS200     -0.2717
    109  CB        52.1910   55.1060   43.8160 C.3   200  CYS200      0.0970
    110  SG        53.9810   54.9690   43.5090 S.3   200  CYS200     -0.0800
    111  N         50.9800   53.3890   41.5000 N.am  201  HIS201     -0.1975
    112  CA        51.1970   52.3660   40.4980 C.3   201  HIS201      0.1656
    113  C         50.9750   52.9650   39.1320 C.2   201  HIS201      0.2291
    114  O         51.7150   52.6750   38.1890 O.2   201  HIS201     -0.2864
    115  CB        50.2420   51.1990   40.6960 C.3   201  HIS201      0.0771
    116  CG        50.6090   50.3120   41.8390 C.ar  201  HIS201      0.0820
    117  ND1       49.7840   49.3070   42.2930 N.ar  201  HIS201     -0.2267
    118  CD2       51.7100   50.2790   42.6240 C.ar  201  HIS201      0.1154
    119  CE1       50.3600   48.6930   43.3100 C.ar  201  HIS201      0.1986
    120  NE2       51.5300   49.2630   43.5310 N.ar  201  HIS201     -0.2212
    121  N         53.8440   55.3070   37.8830 N.3   204  VAL204     -0.1245
    122  CA        55.0070   54.6110   37.3640 C.3   204  VAL204      0.1561
    123  C         54.7020   54.0180   35.9940 C.2   204  VAL204      0.2260
    124  O         55.4730   54.1930   35.0510 O.2   204  VAL204     -0.2867
    125  CB        55.4660   53.4900   38.3160 C.3   204  VAL204      0.0252
    126  CG1       56.7810   52.8790   37.8110 C.3   204  VAL204      0.0019
    127  CG2       55.6410   54.0480   39.7230 C.3   204  VAL204      0.0019
    128  N         58.8910   48.6230   35.9930 N.3   212  ASP212     -0.1225
    129  CA        57.8530   47.7670   36.5480 C.3   212  ASP212      0.1805
    130  C         57.0730   48.5370   37.6060 C.2   212  ASP212      0.2598
    131  O         57.6460   49.3350   38.3540 O.2   212  ASP212     -0.2718
    132  CB        58.4830   46.5180   37.1730 C.3   212  ASP212      0.1424
    133  CG        59.0570   45.5720   36.1350 C.2   212  ASP212      0.3668
    134  OD1       59.2830   44.3890   36.4720 O.co2 212  ASP212     -0.2456
    135  OD2       59.2770   46.0090   34.9840 O.co2 212  ASP212     -0.2456
    136  N         55.7660   48.2990   37.6650 N.am  213  SER213     -0.1938
    137  CA        54.9200   48.9450   38.6640 C.3   213  SER213      0.2055
    138  C         54.0500   47.9170   39.3810 C.2   213  SER213      0.2644
    139  O         54.2750   46.7120   39.2520 O.2   213  SER213     -0.2714
    140  CB        54.0410   50.0050   38.0050 C.3   213  SER213      0.2130
    141  OG        53.4140   50.8080   38.9830 O.3   213  SER213     -0.2179
    142  N         53.0680   48.3960   40.1400 N.am  214  GLY214     -0.1940
    143  CA        52.1570   47.5030   40.8350 C.3   214  GLY214      0.1998
    144  C         50.8240   47.3780   40.1260 C.2   214  GLY214      0.2480
    145  O         50.5470   48.1650   39.2250 O.2   214  GLY214     -0.2729
    146  N         49.9660   46.4170   40.5180 N.am  215  PRO215     -0.2726
    147  CA        48.6620   46.2350   39.8670 C.3   215  PRO215      0.1402
    148  C         47.7340   47.4290   40.0280 C.2   215  PRO215      0.2269
    149  O         47.8720   48.2120   40.9680 O.2   215  PRO215     -0.2865
    150  CB        48.0900   44.9780   40.5350 C.3   215  PRO215      0.0296
    151  CG        49.2560   44.3190   41.1970 C.3   215  PRO215      0.0237
    152  CD        50.1650   45.4400   41.6000 C.3   215  PRO215      0.0939
    153  N         45.4230   42.8970   42.3840 N.3   221  CYS221     -0.1235
    154  CA        45.7910   42.8860   43.8000 C.3   221  CYS221      0.1677
    155  C         44.9840   41.8190   44.5430 C.2   221  CYS221      0.2270
    156  O         45.4830   41.1990   45.4740 O.2   221  CYS221     -0.2867
    157  CB        45.5240   44.2550   44.4590 C.3   221  CYS221      0.0956
    158  SG        46.7250   45.6260   44.2270 S.3   221  CYS221     -0.0801
    159  N         51.4390   34.8530   41.8100 N.3   229  LYS229     -0.1231
    160  CA        52.4190   35.1570   40.7720 C.3   229  LYS229      0.1693
    161  C         53.3730   36.2970   41.1310 C.2   229  LYS229      0.2592
    162  O         54.3290   36.5610   40.3980 O.2   229  LYS229     -0.2718
    163  CB        51.6970   35.4730   39.4580 C.3   229  LYS229      0.0285
    164  CG        50.8820   34.2970   38.9230 C.3   229  LYS229      0.0035
    165  CD        49.7020   34.7460   38.0670 C.3   229  LYS229      0.0206
    166  CE        50.1600   35.3680   36.7460 C.3   229  LYS229      0.1093
    167  NZ        49.2180   36.4440   36.2600 N.3   229  LYS229     -0.1314
    168  N         53.1210   36.9760   42.2510 N.am  230  PHE230     -0.1962
    169  CA        54.0460   38.0040   42.7320 C.3   230  PHE230      0.1771
    170  C         55.3610   37.3150   43.0910 C.2   230  PHE230      0.2619
    171  O         55.3600   36.3340   43.8340 O.2   230  PHE230     -0.2715
    172  CB        53.5020   38.6970   43.9930 C.3   230  PHE230      0.0574
    173  CG        52.1450   39.3460   43.8250 C.ar  230  PHE230     -0.0200
    174  CD1       51.3780   39.6570   44.9440 C.ar  230  PHE230     -0.0042
    175  CD2       51.6400   39.6600   42.5660 C.ar  230  PHE230     -0.0042
    176  CE1       50.1350   40.2680   44.8170 C.ar  230  PHE230     -0.0003
    177  CE2       50.3910   40.2770   42.4260 C.ar  230  PHE230     -0.0003
    178  CZ        49.6400   40.5800   43.5530 C.ar  230  PHE230     -0.0000
    179  N         56.4820   37.8180   42.5880 N.am  231  LYS231     -0.1977
    180  CA        57.7680   37.2330   42.9540 C.3   231  LYS231      0.1596
    181  C         58.1320   37.5460   44.4030 C.2   231  LYS231      0.2287
    182  O         57.9520   38.6680   44.8740 O.2   231  LYS231     -0.2864
    183  CB        58.8800   37.7260   42.0240 C.3   231  LYS231      0.0298
    184  CG        59.2600   39.1820   42.1880 C.3   231  LYS231      0.0038
    185  CD        60.1790   39.6360   41.0590 C.3   231  LYS231      0.0206
    186  CE        59.3980   40.4050   39.9940 C.3   231  LYS231      0.1093
    187  NZ        60.2690   40.8770   38.8810 N.3   231  LYS231     -0.1314
@<TRIPOS>BOND
     1   135   133   ar
     2   124   123    2
     3   128   129    1
     4   123   122    1
     5   133   134   ar
     6   133   132    1
     7   167   166    1
     8   129   132    1
     9   129   130    1
    10   166   165    1
    11   122   121    1
    12   122   125    1
    13   130   136   am
    14   130   131    2
    15   136   137    1
    16   126   125    1
    17   140   137    1
    18   140   141    1
    19   165   164    1
    20   114   113    2
    21   125   127    1
    22   137   138    1
    23   187   186    1
    24   164   163    1
    25   113   112    1
    26   145   144    2
    27   139   138    2
    28   138   142   am
    29   163   160    1
    30   147   148    1
    31   147   146    1
    32   147   150    1
    33   186   185    1
    34   148   149    2
    35    59    56    1
    36   144   146   am
    37   144   143    1
    38   142   143    1
    39   162   161    2
    40   112   115    1
    41   112   111    1
    42   146   152    1
    43   150   151    1
    44   108   107    2
    45   115   116    1
    46   160   161    1
    47   160   159    1
    48    56    55    1
    49    56    57    1
    50   185   184    1
    51   161   168   am
    52   151   152    1
    53   107   111   am
    54   107   106    1
    55    58    57    2
    56    57    60   am
    57   116   117   ar
    58   116   118   ar
    59   183   184    1
    60   183   180    1
    61   168   169    1
    62   117   119   ar
    63    39    37    1
    64   153   154    1
    65   177   175   ar
    66   177   178   ar
    67   175   173   ar
    68   106   105    1
    69   106   109    1
    70   179   180    1
    71   179   170   am
    72   118   120   ar
    73   169   170    1
    74   169   172    1
    75   180   181    1
    76    60    61    1
    77   170   171    2
    78   119   120   ar
    79    37    38    1
    80    37    36    2
    81   110   109    1
    82   178   176   ar
    83    52    51    1
    84    52    53    2
    85    54    51    1
    86   154   157    1
    87   154   155    1
    88   173   172    1
    89   173   174   ar
    90   102   101    2
    91    51    50    1
    92    61    62    1
    93    61    64    1
    94   158   157    1
    95    36    35    1
    96   181   182    2
    97   155   156    2
    98    62    63    2
    99   101   100    1
   100   176   174   ar
   101    65    64    1
   102    65    67    1
   103    64    66    1
   104    35    34    1
   105    93    92    2
   106    32    31    2
   107   100   103    1
   108   100    99    1
   109    33    34    1
   110    33    30    1
   111    49    47   ar
   112    49    48   ar
   113    92    99   am
   114    92    91    1
   115   103   104    1
   116    47    45   ar
   117    31    30    1
   118    31    40   am
   119    27    26    1
   120     8     6    1
   121    48    46   ar
   122    30    29    1
   123    41    40    1
   124    41    42    1
   125    41    44    1
   126    45    46   ar
   127    45    44    1
   128    91    90    1
   129    91    94    1
   130    43    42    2
   131    28    26    1
   132    88    87    2
   133    26    25    1
   134     6     5    1
   135     7     5    1
   136    72    69    1
   137     5     2    1
   138    87    86    1
   139    24    23    2
   140    94    95    1
   141    95    96    1
   142    22    25    1
   143    22    23    1
   144    22    21    1
   145    71    70    2
   146    69    70    1
   147    69    68    1
   148    20    18    1
   149    78    77    1
   150    70    73   am
   151     2     1    1
   152     2     3    1
   153    96    97    2
   154    96    98   am
   155    86    89    1
   156    86    85    1
   157    19    18    1
   158    12    11    2
   159    18    17    1
   160     3     9   am
   161     3     4    2
   162    73    74    1
   163     9    10    1
   164    77    74    1
   165    74    75    1
   166    11    10    1
   167    11    13   am
   168    17    14    1
   169    14    13    1
   170    14    15    1
   171    75    76    2
   172    15    16    2
   173    84    83    1
   174    83    80    1
   175    80    79    1
   176    80    81    1
   177    81    82    2
