@<TRIPOS>MOLECULE
tmp/2e84A05.pdb
 175 174 0 0 0
SMALL
GASTEIGER

@<TRIPOS>ATOM
      1  N         60.3130   -3.1650   78.3670 N.3   412  ILE412     -0.1231
      2  CA        59.0920   -2.9950   79.1280 C.3   412  ILE412      0.1692
      3  C         58.2530   -4.2530   78.9640 C.2   412  ILE412      0.2593
      4  O         57.6310   -4.4780   77.9250 O.2   412  ILE412     -0.2718
      5  CB        58.3090   -1.7540   78.6410 C.3   412  ILE412      0.0266
      6  CG1       59.2170   -0.5160   78.7110 C.3   412  ILE412      0.0019
      7  CG2       57.0730   -1.5380   79.5140 C.3   412  ILE412      0.0020
      8  CD1       58.6950    0.6950   77.9490 C.3   412  ILE412      0.0001
      9  N         58.2680   -5.0840   79.9970 N.am  413  GLY413     -0.1942
     10  CA        57.6020   -6.3690   79.9260 C.3   413  GLY413      0.2014
     11  C         56.7810   -6.6220   81.1730 C.2   413  GLY413      0.2639
     12  O         56.3560   -7.7430   81.4380 O.2   413  GLY413     -0.2714
     13  N         56.5580   -5.5660   81.9400 N.am  414  VAL414     -0.1963
     14  CA        55.8500   -5.6780   83.1990 C.3   414  VAL414      0.1727
     15  C         54.4110   -6.1320   82.9620 C.2   414  VAL414      0.2616
     16  O         53.7310   -6.5730   83.8840 O.2   414  VAL414     -0.2715
     17  CB        55.8400   -4.3260   83.9230 C.3   414  VAL414      0.0290
     18  CG1       55.3430   -4.4970   85.3400 C.3   414  VAL414      0.0023
     19  CG2       57.2350   -3.7310   83.9100 C.3   414  VAL414      0.0023
     20  N         53.9580   -6.0260   81.7170 N.am  415  LEU415     -0.1963
     21  CA        52.5510   -6.2230   81.3740 C.3   415  LEU415      0.1728
     22  C         52.4150   -7.3750   80.3620 C.2   415  LEU415      0.2617
     23  O         51.3030   -7.7960   80.0110 O.2   415  LEU415     -0.2715
     24  CB        51.9940   -4.9180   80.7780 C.3   415  LEU415      0.0311
     25  CG        50.8950   -4.0650   81.4360 C.3   415  LEU415      0.0022
     26  CD1       51.2100   -3.7440   82.8850 C.3   415  LEU415      0.0001
     27  CD2       50.7470   -2.7700   80.6250 C.3   415  LEU415      0.0001
     28  N         53.5590   -7.8820   79.9080 N.am  416  SER416     -0.1936
     29  CA        53.6260   -8.7960   78.7720 C.3   416  SER416      0.2055
     30  C         52.6560   -9.9720   78.8810 C.2   416  SER416      0.2643
     31  O         52.7820  -10.8030   79.7750 O.2   416  SER416     -0.2714
     32  CB        55.0550   -9.3280   78.6250 C.3   416  SER416      0.2130
     33  OG        55.2950   -9.8170   77.3140 O.3   416  SER416     -0.2179
     34  N         51.6980  -10.0420   77.9610 N.am  417  ASP417     -0.1957
     35  CA        50.7450  -11.1470   77.9270 C.3   417  ASP417      0.1840
     36  C         50.3460  -11.5080   76.4900 C.2   417  ASP417      0.2622
     37  O         50.6830  -12.5910   76.0030 O.2   417  ASP417     -0.2715
     38  CB        49.5010  -10.7890   78.7470 C.3   417  ASP417      0.1450
     39  CG        48.5160  -11.9470   78.8670 C.2   417  ASP417      0.3671
     40  OD1       48.7440  -13.0050   78.2390 O.co2 417  ASP417     -0.2456
     41  OD2       47.5090  -11.7990   79.5930 O.co2 417  ASP417     -0.2456
     42  N         49.6310  -10.6100   75.8140 N.am  418  LYS418     -0.1963
     43  CA        49.2340  -10.8420   74.4230 C.3   418  LYS418      0.1728
     44  C         50.3700  -10.4400   73.5000 C.2   418  LYS418      0.2616
     45  O         50.4570  -10.8780   72.3530 O.2   418  LYS418     -0.2715
     46  CB        47.9790  -10.0380   74.0710 C.3   418  LYS418      0.0311
     47  CG        46.7450  -10.9020   73.8000 C.3   418  LYS418      0.0038
     48  CD        45.9950  -11.3380   75.0840 C.3   418  LYS418      0.0206
     49  CE        46.7160  -12.4440   75.8700 C.3   418  LYS418      0.1093
     50  NZ        46.8140  -13.7450   75.1410 N.3   418  LYS418     -0.1314
     51  N         51.2510   -9.5980   74.0170 N.am  419  TYR419     -0.1960
     52  CA        52.4030   -9.1660   73.2540 C.3   419  TYR419      0.1771
     53  C         53.6680   -9.4620   74.0430 C.2   419  TYR419      0.2619
     54  O         53.6400   -9.5330   75.2730 O.2   419  TYR419     -0.2715
     55  CB        52.2770   -7.6690   72.9450 C.3   419  TYR419      0.0574
     56  CG        51.0790   -7.3580   72.0750 C.ar  419  TYR419     -0.0198
     57  CD1       49.8090   -7.2570   72.6240 C.ar  419  TYR419     -0.0009
     58  CD2       51.2120   -7.2210   70.6940 C.ar  419  TYR419     -0.0009
     59  CE1       48.6930   -7.0330   71.8250 C.ar  419  TYR419      0.0417
     60  CE2       50.1150   -6.9940   69.8870 C.ar  419  TYR419      0.0417
     61  CZ        48.8500   -6.9010   70.4590 C.ar  419  TYR419      0.1957
     62  OH        47.7420   -6.6650   69.6710 O.3   419  TYR419     -0.2866
     63  N         54.7730   -9.6620   73.3340 N.am  420  GLU420     -0.1964
     64  CA        56.0640   -9.7560   73.9940 C.3   420  GLU420      0.1718
     65  C         56.4690   -8.3820   74.5190 C.2   420  GLU420      0.2458
     66  O         55.8310   -7.3770   74.2010 O.2   420  GLU420     -0.2730
     67  CB        57.1020  -10.3120   73.0170 C.3   420  GLU420      0.0428
     68  CG        57.1370  -11.8460   73.0090 C.3   420  GLU420      0.1163
     69  CD        57.5740  -12.4340   71.6790 C.2   420  GLU420      0.3649
     70  OE1       57.3420  -13.6460   71.4640 O.co2 420  GLU420     -0.2457
     71  OE2       58.1470  -11.6890   70.8510 O.co2 420  GLU420     -0.2457
     72  N         57.5110   -8.3200   75.3660 N.am  421  PRO421     -0.2716
     73  CA        57.9450   -7.0230   75.9020 C.3   421  PRO421      0.1536
     74  C         58.3600   -6.0980   74.7790 C.2   421  PRO421      0.2599
     75  O         58.8790   -6.5470   73.7650 O.2   421  PRO421     -0.2715
     76  CB        59.1220   -7.3810   76.8070 C.3   421  PRO421      0.0310
     77  CG        58.8650   -8.8010   77.1880 C.3   421  PRO421      0.0237
     78  CD        58.2650   -9.4320   75.9670 C.3   421  PRO421      0.0939
     79  N         58.1220   -4.8070   74.9500 N.am  422  SER422     -0.1950
     80  CA        58.5430   -3.8510   73.9390 C.3   422  SER422      0.1924
     81  C         59.9650   -3.4430   74.2560 C.2   422  SER422      0.2314
     82  O         60.2860   -3.1230   75.4050 O.2   422  SER422     -0.2863
     83  CB        57.6260   -2.6180   73.9360 C.3   422  SER422      0.2116
     84  OG        57.8190   -1.8150   75.0820 O.3   422  SER422     -0.2180
     85  N         49.1110    0.4850   81.5130 N.3   482  LYS482     -0.1245
     86  CA        48.9900    0.2540   80.0810 C.3   482  LYS482      0.1561
     87  C         48.5720    1.5260   79.3420 C.2   482  LYS482      0.2260
     88  O         49.1400    1.8670   78.3040 O.2   482  LYS482     -0.2867
     89  CB        47.9760   -0.8630   79.8160 C.3   482  LYS482      0.0271
     90  CG        47.5850   -1.0340   78.3560 C.3   482  LYS482      0.0035
     91  CD        46.5780   -2.1610   78.1980 C.3   482  LYS482      0.0206
     92  CE        45.5000   -1.8090   77.1850 C.3   482  LYS482      0.1093
     93  NZ        45.8200   -2.3200   75.8260 N.3   482  LYS482     -0.1314
     94  N         51.3280    4.0770   79.1400 N.3   485  TYR485     -0.1227
     95  CA        52.2440    3.7890   78.0430 C.3   485  TYR485      0.1736
     96  C         51.6060    4.1830   76.7300 C.2   485  TYR485      0.2595
     97  O         52.1550    4.9800   75.9760 O.2   485  TYR485     -0.2718
     98  CB        52.6040    2.3030   78.0000 C.3   485  TYR485      0.0548
     99  CG        53.6060    1.8870   79.0500 C.ar  485  TYR485     -0.0200
    100  CD1       53.3830    0.7580   79.8410 C.ar  485  TYR485     -0.0009
    101  CD2       54.7740    2.6230   79.2630 C.ar  485  TYR485     -0.0009
    102  CE1       54.2930    0.3680   80.8190 C.ar  485  TYR485      0.0417
    103  CE2       55.6990    2.2420   80.2460 C.ar  485  TYR485      0.0417
    104  CZ        55.4470    1.1130   81.0180 C.ar  485  TYR485      0.1957
    105  OH        56.3310    0.7330   81.9970 O.3   485  TYR485     -0.2866
    106  N         50.4330    3.6260   76.4630 N.am  486  HIS486     -0.1975
    107  CA        49.7510    3.9000   75.2150 C.3   486  HIS486      0.1656
    108  C         49.4950    5.3700   74.9750 C.2   486  HIS486      0.2291
    109  O         49.6530    5.8540   73.8480 O.2   486  HIS486     -0.2864
    110  CB        48.4440    3.1340   75.1570 C.3   486  HIS486      0.0771
    111  CG        48.6150    1.7170   74.7190 C.ar  486  HIS486      0.0820
    112  ND1       47.5670    0.8260   74.6440 N.ar  486  HIS486     -0.2267
    113  CD2       49.7200    1.0360   74.3330 C.ar  486  HIS486      0.1154
    114  CE1       48.0210   -0.3430   74.2320 C.ar  486  HIS486      0.1986
    115  NE2       49.3230   -0.2430   74.0380 N.ar  486  HIS486     -0.2212
    116  N         53.2540    7.0470   74.5390 N.3   489  CYS489     -0.1221
    117  CA        53.9990    6.5770   73.3770 C.3   489  CYS489      0.1808
    118  C         53.3070    6.9160   72.0600 C.2   489  CYS489      0.2601
    119  O         53.9050    7.5280   71.1780 O.2   489  CYS489     -0.2717
    120  CB        54.2030    5.0620   73.4360 C.3   489  CYS489      0.0970
    121  SG        54.7850    4.4000   75.0150 S.3   489  CYS489     -0.0800
    122  N         52.0570    6.4960   71.9050 N.am  490  MET490     -0.1979
    123  CA        51.3600    6.7800   70.6580 C.3   490  MET490      0.1605
    124  C         51.0780    8.2780   70.5940 C.2   490  MET490      0.2287
    125  O         51.0990    8.8690   69.5170 O.2   490  MET490     -0.2864
    126  CB        50.0550    5.9650   70.5530 C.3   490  MET490      0.0413
    127  CG        50.3030    4.4640   70.3910 C.3   490  MET490      0.0598
    128  SD        48.8520    3.4280   69.9960 S.3   490  MET490     -0.1393
    129  CE        48.3640    2.8930   71.6310 C.3   490  MET490      0.0692
    130  N         54.0780    9.9860   68.8760 N.3   493  HIS493     -0.1241
    131  CA        54.2250    9.6160   67.4640 C.3   493  HIS493      0.1621
    132  C         53.1830   10.3620   66.6510 C.2   493  HIS493      0.2264
    133  O         53.4740   10.8760   65.5750 O.2   493  HIS493     -0.2867
    134  CB        54.0670    8.0980   67.2730 C.3   493  HIS493      0.0745
    135  CG        55.1880    7.2940   67.8620 C.ar  493  HIS493      0.0817
    136  ND1       55.5270    6.0390   67.4040 N.ar  493  HIS493     -0.2268
    137  CD2       56.0590    7.5730   68.8650 C.ar  493  HIS493      0.1154
    138  CE1       56.5560    5.5800   68.0970 C.ar  493  HIS493      0.1986
    139  NE2       56.8990    6.4920   68.9900 N.ar  493  HIS493     -0.2212
    140  N         50.8480    0.0340   62.5400 N.3   504  ALA504     -0.1231
    141  CA        50.6930   -1.3500   62.9520 C.3   504  ALA504      0.1694
    142  C         50.9630   -1.4780   64.4500 C.2   504  ALA504      0.2592
    143  O         51.9050   -0.8800   64.9830 O.2   504  ALA504     -0.2718
    144  CB        51.6470   -2.2380   62.1650 C.3   504  ALA504      0.0304
    145  N         50.1250   -2.2560   65.1290 N.am  505  CYS505     -0.1970
    146  CA        50.3240   -2.5240   66.5410 C.3   505  CYS505      0.1712
    147  C         51.6480   -3.2370   66.7390 C.2   505  CYS505      0.2296
    148  O         52.1150   -3.3860   67.8700 O.2   505  CYS505     -0.2864
    149  CB        49.1930   -3.3910   67.0740 C.3   505  CYS505      0.0983
    150  SG        47.5570   -2.6160   66.9440 S.3   505  CYS505     -0.0798
    151  N         54.5430   -2.2030   65.8540 N.3   507  GLU507     -0.1231
    152  CA        55.6610   -1.2670   65.9520 C.3   507  GLU507      0.1699
    153  C         56.4120   -1.4000   67.2650 C.2   507  GLU507      0.2592
    154  O         57.6380   -1.3910   67.2960 O.2   507  GLU507     -0.2718
    155  CB        55.1800    0.1850   65.8150 C.3   507  GLU507      0.0402
    156  CG        56.3300    1.2020   65.9330 C.3   507  GLU507      0.1161
    157  CD        55.8730    2.6550   65.9690 C.2   507  GLU507      0.3649
    158  OE1       54.7080    2.9260   66.3170 O.co2 507  GLU507     -0.2457
    159  OE2       56.6930    3.5350   65.6540 O.co2 507  GLU507     -0.2457
    160  N         55.6760   -1.5070   68.3580 N.am  508  CYS508     -0.1956
    161  CA        56.3060   -1.4130   69.6530 C.3   508  CYS508      0.1843
    162  C         56.3360   -2.7510   70.3690 C.2   508  CYS508      0.2625
    163  O         56.8770   -2.8510   71.4610 O.2   508  CYS508     -0.2714
    164  CB        55.5920   -0.3690   70.5170 C.3   508  CYS508      0.0997
    165  SG        55.4870    1.3230   69.8240 S.3   508  CYS508     -0.0797
    166  N         55.7590   -3.7830   69.7670 N.am  509  HIS509     -0.1973
    167  CA        55.8420   -5.1190   70.3520 C.3   509  HIS509      0.1656
    168  C         55.2340   -6.2140   69.4840 C.2   509  HIS509      0.2291
    169  O         54.2480   -5.9950   68.7750 O.2   509  HIS509     -0.2864
    170  CB        55.1880   -5.1420   71.7380 C.3   509  HIS509      0.0771
    171  CG        53.9090   -4.3690   71.8160 C.ar  509  HIS509      0.0820
    172  ND1       52.9580   -4.3980   70.8190 N.ar  509  HIS509     -0.2267
    173  CD2       53.4270   -3.5420   72.7730 C.ar  509  HIS509      0.1154
    174  CE1       51.9430   -3.6230   71.1590 C.ar  509  HIS509      0.1986
    175  NE2       52.2030   -3.0920   72.3400 N.ar  509  HIS509     -0.2212
@<TRIPOS>BOND
     1   144   141    1
     2   140   141    1
     3   141   142    1
     4   142   143    2
     5   142   145   am
     6   145   146    1
     7   133   132    2
     8   159   157   ar
     9   155   156    1
    10   155   152    1
    11   151   152    1
    12   156   157    1
    13   152   153    1
    14   157   158   ar
    15   146   147    1
    16   146   149    1
    17   132   131    1
    18   147   148    2
    19   150   149    1
    20   153   154    2
    21   153   160   am
    22   134   131    1
    23   134   135    1
    24   136   135   ar
    25   136   138   ar
    26   131   130    1
    27   135   137   ar
    28   138   139   ar
    29   160   161    1
    30   169   168    2
    31   137   139   ar
    32   168   167    1
    33   125   124    2
    34   161   162    1
    35   161   164    1
    36    62    61    1
    37   166   167    1
    38   166   162   am
    39   165   164    1
    40    60    61   ar
    41    60    58   ar
    42   128   127    1
    43   128   129    1
    44   167   170    1
    45   162   163    2
    46   127   126    1
    47    61    59   ar
    48   126   123    1
    49   124   123    1
    50   123   122    1
    51    58    56   ar
    52   172   174   ar
    53   172   171   ar
    54    71    69   ar
    55   174   175   ar
    56   119   118    2
    57    70    69   ar
    58    69    68    1
    59   170   171    1
    60   171   173   ar
    61    59    57   ar
    62   122   118   am
    63   118   117    1
    64    56    57   ar
    65    56    55    1
    66   175   173   ar
    67    45    44    2
    68    55    52    1
    69    68    67    1
    70    67    64    1
    71    52    51    1
    72    52    53    1
    73    63    64    1
    74    63    53   am
    75   117   120    1
    76   117   116    1
    77   120   121    1
    78    44    51   am
    79    44    43    1
    80    75    74    2
    81    47    46    1
    82    47    48    1
    83   109   108    2
    84    83    80    1
    85    83    84    1
    86    80    81    1
    87    80    79    1
    88    64    65    1
    89   115   114   ar
    90   115   113   ar
    91    53    54    2
    92    46    43    1
    93    66    65    2
    94   114   112   ar
    95    81    82    2
    96   113   111   ar
    97    43    42    1
    98    65    72   am
    99   112   111   ar
   100   111   110    1
   101    74    79   am
   102    74    73    1
   103   108   107    1
   104    48    49    1
   105    50    49    1
   106   110   107    1
   107   107   106    1
   108    72    73    1
   109    72    78    1
   110    42    36   am
   111    93    92    1
   112    73    76    1
   113    78    77    1
   114    97    96    2
   115    37    36    2
   116   106    96   am
   117    36    35    1
   118    96    95    1
   119    76    77    1
   120    92    91    1
   121    33    32    1
   122     4     3    2
   123    35    34    1
   124    35    38    1
   125     8     6    1
   126    34    30   am
   127    98    95    1
   128    98    99    1
   129    95    94    1
   130    91    90    1
   131    40    39   ar
   132    88    87    2
   133    90    89    1
   134     1     2    1
   135    32    29    1
   136     5     6    1
   137     5     2    1
   138     5     7    1
   139    38    39    1
   140    29    30    1
   141    29    28    1
   142    39    41   ar
   143    30    31    2
   144     3     2    1
   145     3     9   am
   146    99   101   ar
   147    99   100   ar
   148   101   103   ar
   149    87    86    1
   150    89    86    1
   151   100   102   ar
   152    28    22   am
   153    10     9    1
   154    10    11    1
   155    23    22    2
   156    86    85    1
   157   103   104   ar
   158    22    21    1
   159    27    25    1
   160    24    21    1
   161    24    25    1
   162   102   104   ar
   163   104   105    1
   164    11    12    2
   165    11    13   am
   166    21    20    1
   167    25    26    1
   168    20    15   am
   169    13    14    1
   170    15    14    1
   171    15    16    2
   172    14    17    1
   173    19    17    1
   174    17    18    1
