@<TRIPOS>MOLECULE
tmp/2e84A01.pdb
 202 198 0 0 0
SMALL
GASTEIGER

@<TRIPOS>ATOM
      1  N         62.2820   45.6560   79.6690 N.3   249  VAL249     -0.1231
      2  CA        60.8580   45.8260   79.9110 C.3   249  VAL249      0.1692
      3  C         60.7210   45.9530   81.4110 C.2   249  VAL249      0.2592
      4  O         61.1190   45.0530   82.1480 O.2   249  VAL249     -0.2718
      5  CB        60.0540   44.5990   79.4410 C.3   249  VAL249      0.0266
      6  CG1       58.5590   44.9290   79.4080 C.3   249  VAL249      0.0020
      7  CG2       60.5550   44.1390   78.0840 C.3   249  VAL249      0.0020
      8  N         60.1660   47.0730   81.8610 N.am  250  LEU250     -0.1966
      9  CA        60.1910   47.4230   83.2800 C.3   250  LEU250      0.1713
     10  C         58.8180   47.5310   83.9250 C.2   250  LEU250      0.2458
     11  O         57.8260   47.8350   83.2600 O.2   250  LEU250     -0.2730
     12  CB        60.9130   48.7490   83.4720 C.3   250  LEU250      0.0310
     13  CG        62.3530   48.7750   82.9760 C.3   250  LEU250      0.0022
     14  CD1       62.9690   50.1410   83.2600 C.3   250  LEU250      0.0001
     15  CD2       63.1350   47.6690   83.6600 C.3   250  LEU250      0.0001
     16  N         58.7520   47.2950   85.2450 N.am  251  PRO251     -0.2727
     17  CA        57.4990   47.3710   86.0030 C.3   251  PRO251      0.1402
     18  C         57.0820   48.8250   86.2280 C.2   251  PRO251      0.2269
     19  O         56.9280   49.2650   87.3680 O.2   251  PRO251     -0.2865
     20  CB        57.8310   46.6670   87.3150 C.3   251  PRO251      0.0296
     21  CG        59.2900   46.8690   87.4740 C.3   251  PRO251      0.0237
     22  CD        59.8700   46.8440   86.0890 C.3   251  PRO251      0.0939
     23  N         56.7860   46.3150   92.7240 N.3   263  GLY263     -0.1210
     24  CA        57.2440   45.2500   91.8490 C.3   263  GLY263      0.1956
     25  C         57.7100   44.0520   92.6520 C.2   263  GLY263      0.2612
     26  O         58.1750   44.1980   93.7820 O.2   263  GLY263     -0.2717
     27  N         57.5890   42.8650   92.0730 N.am  264  ALA264     -0.1965
     28  CA        57.8340   41.6280   92.8030 C.3   264  ALA264      0.1728
     29  C         58.8960   40.7660   92.1220 C.2   264  ALA264      0.2616
     30  O         59.3000   39.7250   92.6420 O.2   264  ALA264     -0.2715
     31  CB        56.5290   40.8500   92.9430 C.3   264  ALA264      0.0334
     32  N         59.3500   41.2070   90.9560 N.am  265  MET265     -0.1963
     33  CA        60.3130   40.4410   90.1740 C.3   265  MET265      0.1736
     34  C         61.4820   41.3110   89.7290 C.2   265  MET265      0.2616
     35  O         61.3540   42.5340   89.6180 O.2   265  MET265     -0.2715
     36  CB        59.6220   39.8510   88.9470 C.3   265  MET265      0.0427
     37  CG        58.2880   39.2030   89.2660 C.3   265  MET265      0.0599
     38  SD        58.3930   37.6000   90.1050 S.3   265  MET265     -0.1393
     39  CE        59.4180   36.6830   88.9710 C.3   265  MET265      0.0692
     40  N         62.6220   40.6740   89.4790 N.am  266  LYS266     -0.1964
     41  CA        63.7090   41.3200   88.7560 C.3   266  LYS266      0.1713
     42  C         63.1560   41.6780   87.3830 C.2   266  LYS266      0.2458
     43  O         62.2380   41.0280   86.9020 O.2   266  LYS266     -0.2730
     44  CB        64.8860   40.3560   88.5830 C.3   266  LYS266      0.0311
     45  CG        65.3840   39.6840   89.8560 C.3   266  LYS266      0.0038
     46  CD        66.3960   38.5910   89.5000 C.3   266  LYS266      0.0206
     47  CE        67.0380   37.9430   90.7240 C.3   266  LYS266      0.1093
     48  NZ        66.0430   37.2580   91.5950 N.3   266  LYS266     -0.1314
     49  N         63.7130   42.7100   86.7300 N.am  267  PRO267     -0.2716
     50  CA        63.2530   43.1370   85.3980 C.3   267  PRO267      0.1536
     51  C         63.5910   42.1170   84.3060 C.2   267  PRO267      0.2598
     52  O         64.1550   41.0690   84.5840 O.2   267  PRO267     -0.2715
     53  CB        63.9720   44.4680   85.1790 C.3   267  PRO267      0.0310
     54  CG        65.2300   44.3440   85.9920 C.3   267  PRO267      0.0237
     55  CD        64.8520   43.5180   87.2080 C.3   267  PRO267      0.0939
     56  N         63.2490   42.4360   83.0640 N.am  268  VAL268     -0.1978
     57  CA        63.4340   41.5130   81.9510 C.3   268  VAL268      0.1596
     58  C         64.1650   42.1190   80.7480 C.2   268  VAL268      0.2287
     59  O         63.6660   43.0340   80.0970 O.2   268  VAL268     -0.2864
     60  CB        62.0700   40.9700   81.4740 C.3   268  VAL268      0.0276
     61  CG1       62.2360   40.1770   80.1910 C.3   268  VAL268      0.0022
     62  CG2       61.4540   40.1090   82.5620 C.3   268  VAL268      0.0022
     63  N         65.0330   41.9570   76.9700 N.3   270  PHE270     -0.1241
     64  CA        64.2810   41.4090   75.8590 C.3   270  PHE270      0.1605
     65  C         65.0440   41.5440   74.5610 C.2   270  PHE270      0.2264
     66  O         65.3600   42.6530   74.1270 O.2   270  PHE270     -0.2867
     67  CB        62.9360   42.1220   75.7350 C.3   270  PHE270      0.0534
     68  CG        62.1350   41.6910   74.5500 C.ar  270  PHE270     -0.0203
     69  CD1       61.6040   40.4090   74.4830 C.ar  270  PHE270     -0.0042
     70  CD2       61.9080   42.5680   73.4980 C.ar  270  PHE270     -0.0042
     71  CE1       60.8540   40.0070   73.3770 C.ar  270  PHE270     -0.0003
     72  CE2       61.1690   42.1830   72.3970 C.ar  270  PHE270     -0.0003
     73  CZ        60.6380   40.8980   72.3320 C.ar  270  PHE270     -0.0000
     74  N         51.8270   48.4230   86.1400 N.3   299  LEU299     -0.1245
     75  CA        51.7390   47.5000   87.2580 C.3   299  LEU299      0.1561
     76  C         50.3120   47.4410   87.7830 C.2   299  LEU299      0.2260
     77  O         49.8360   46.3770   88.1720 O.2   299  LEU299     -0.2867
     78  CB        52.6750   47.9460   88.3770 C.3   299  LEU299      0.0270
     79  CG        53.4410   46.8730   89.1590 C.3   299  LEU299      0.0019
     80  CD1       53.9780   47.4950   90.4450 C.3   299  LEU299      0.0001
     81  CD2       52.5420   45.6880   89.4720 C.3   299  LEU299      0.0001
     82  N         50.2250   44.7690   83.3590 N.3   310  ILE310     -0.1231
     83  CA        51.3860   44.3820   82.5750 C.3   310  ILE310      0.1692
     84  C         51.6950   42.9020   82.7700 C.2   310  ILE310      0.2591
     85  O         52.1330   42.2260   81.8380 O.2   310  ILE310     -0.2718
     86  CB        52.6300   45.2440   82.9170 C.3   310  ILE310      0.0266
     87  CG1       53.7450   44.9590   81.9070 C.3   310  ILE310      0.0019
     88  CG2       53.1160   44.9480   84.3110 C.3   310  ILE310      0.0020
     89  CD1       55.0210   45.7760   82.1220 C.3   310  ILE310      0.0001
     90  N         51.4440   42.3910   83.9700 N.am  311  GLU311     -0.1979
     91  CA        51.5860   40.9590   84.2210 C.3   311  GLU311      0.1602
     92  C         50.6940   40.1940   83.2460 C.2   311  GLU311      0.2287
     93  O         51.1160   39.2080   82.6350 O.2   311  GLU311     -0.2864
     94  CB        51.1900   40.6270   85.6640 C.3   311  GLU311      0.0415
     95  CG        51.2030   39.1460   86.0010 C.3   311  GLU311      0.1163
     96  CD        50.8850   38.8580   87.4640 C.2   311  GLU311      0.3649
     97  OE1       50.8160   37.6630   87.8290 O.co2 311  GLU311     -0.2457
     98  OE2       50.7090   39.8170   88.2490 O.co2 311  GLU311     -0.2457
     99  N         52.0000   40.3370   79.7140 N.3   314  MET314     -0.1230
    100  CA        53.2020   39.5760   79.4270 C.3   314  MET314      0.1702
    101  C         53.0550   38.0620   79.6420 C.2   314  MET314      0.2592
    102  O         53.9480   37.2950   79.2730 O.2   314  MET314     -0.2718
    103  CB        54.3690   40.1290   80.2540 C.3   314  MET314      0.0401
    104  CG        54.6800   41.5980   79.9720 C.3   314  MET314      0.0596
    105  SD        55.1160   41.9540   78.2430 S.3   314  MET314     -0.1393
    106  CE        55.0030   43.7340   78.2290 C.3   314  MET314      0.0692
    107  N         51.9350   37.6250   80.2200 N.am  315  HIS315     -0.1976
    108  CA        51.7830   36.2060   80.5500 C.3   315  HIS315      0.1656
    109  C         50.5570   35.4710   80.0160 C.2   315  HIS315      0.2291
    110  O         50.5710   34.2540   79.9640 O.2   315  HIS315     -0.2864
    111  CB        51.8360   35.9980   82.0600 C.3   315  HIS315      0.0771
    112  CG        53.0950   36.4950   82.6930 C.ar  315  HIS315      0.0820
    113  ND1       53.2330   37.7870   83.1480 N.ar  315  HIS315     -0.2267
    114  CD2       54.2700   35.8740   82.9530 C.ar  315  HIS315      0.1154
    115  CE1       54.4380   37.9420   83.6620 C.ar  315  HIS315      0.1986
    116  NE2       55.0870   36.7970   83.5570 N.ar  315  HIS315     -0.2212
    117  N         54.1120   37.2520   76.1470 N.3   323  CYS323     -0.1221
    118  CA        55.3670   36.5080   76.1050 C.3   323  CYS323      0.1808
    119  C         55.1310   35.0120   76.1870 C.2   323  CYS323      0.2601
    120  O         55.3710   34.2570   75.2410 O.2   323  CYS323     -0.2717
    121  CB        56.2630   36.8810   77.2840 C.3   323  CYS323      0.0970
    122  SG        56.6690   38.6300   77.5320 S.3   323  CYS323     -0.0800
    123  N         54.6800   34.5970   77.3590 N.am  324  VAL324     -0.1979
    124  CA        54.4500   33.2040   77.6470 C.3   324  VAL324      0.1595
    125  C         53.4010   32.6470   76.6930 C.2   324  VAL324      0.2287
    126  O         53.4870   31.4990   76.2630 O.2   324  VAL324     -0.2864
    127  CB        53.9760   33.0630   79.0860 C.3   324  VAL324      0.0276
    128  CG1       53.7540   31.6270   79.4180 C.3   324  VAL324      0.0022
    129  CG2       55.0000   33.6820   80.0110 C.3   324  VAL324      0.0022
    130  N         54.8560   31.9350   73.1630 N.3   327  HIS327     -0.1241
    131  CA        55.7510   30.8020   73.3550 C.3   327  HIS327      0.1621
    132  C         54.9590   29.5110   73.5050 C.2   327  HIS327      0.2264
    133  O         55.3660   28.4640   72.9850 O.2   327  HIS327     -0.2867
    134  CB        56.6100   30.9980   74.6020 C.3   327  HIS327      0.0745
    135  CG        57.5910   32.1220   74.5010 C.ar  327  HIS327      0.0817
    136  ND1       58.3430   32.5430   75.5750 N.ar  327  HIS327     -0.2268
    137  CD2       57.9670   32.8920   73.4510 C.ar  327  HIS327      0.1154
    138  CE1       59.1440   33.5200   75.1890 C.ar  327  HIS327      0.1986
    139  NE2       58.9370   33.7510   73.9060 N.ar  327  HIS327     -0.2212
    140  N         52.4100   27.7560   84.7750 N.3   350  GLN350     -0.1231
    141  CA        53.7930   27.6220   84.3360 C.3   350  GLN350      0.1683
    142  C         54.7420   27.4190   85.5160 C.2   350  GLN350      0.2434
    143  O         54.6720   28.1390   86.5140 O.2   350  GLN350     -0.2733
    144  CB        54.2050   28.8630   83.5590 C.3   350  GLN350      0.0380
    145  CG        55.5770   28.7980   82.9630 C.3   350  GLN350      0.0905
    146  CD        55.8930   30.0370   82.1660 C.2   350  GLN350      0.2608
    147  OE1       55.9080   31.1430   82.7040 O.2   350  GLN350     -0.2717
    148  NE2       56.1420   29.8620   80.8710 N.am  350  GLN350     -0.0878
    149  N         55.6520   26.4350   85.4100 N.am  351  PRO351     -0.2718
    150  CA        56.6230   26.1360   86.4740 C.3   351  PRO351      0.1535
    151  C         57.4760   27.3320   86.9030 C.2   351  PRO351      0.2598
    152  O         57.7020   28.2540   86.1190 O.2   351  PRO351     -0.2715
    153  CB        57.4700   25.0010   85.8930 C.3   351  PRO351      0.0310
    154  CG        57.2550   25.0670   84.4280 C.3   351  PRO351      0.0237
    155  CD        55.8770   25.6140   84.2070 C.3   351  PRO351      0.0939
    156  N         57.9450   27.3050   88.1500 N.am  352  GLU352     -0.1978
    157  CA        58.7030   28.4150   88.7200 C.3   352  GLU352      0.1602
    158  C         60.1430   28.4400   88.2060 C.2   352  GLU352      0.2287
    159  O         60.8500   29.4410   88.3540 O.2   352  GLU352     -0.2864
    160  CB        58.6980   28.3250   90.2460 C.3   352  GLU352      0.0415
    161  CG        59.2840   29.5410   90.9440 C.3   352  GLU352      0.1163
    162  CD        59.6380   29.2720   92.3990 C.2   352  GLU352      0.3649
    163  OE1       60.2450   28.2130   92.6870 O.co2 352  GLU352     -0.2457
    164  OE2       59.3090   30.1230   93.2540 O.co2 352  GLU352     -0.2457
    165  N         60.8980   28.3910   85.1040 N.3   354  ALA354     -0.1231
    166  CA        60.8830   29.1940   83.8900 C.3   354  ALA354      0.1694
    167  C         60.8840   30.6960   84.1910 C.2   354  ALA354      0.2592
    168  O         61.2470   31.5050   83.3380 O.2   354  ALA354     -0.2718
    169  CB        59.6650   28.8260   83.0460 C.3   354  ALA354      0.0304
    170  N         60.4850   31.0690   85.4030 N.am  355  CYS355     -0.1970
    171  CA        60.4180   32.4810   85.7680 C.3   355  CYS355      0.1712
    172  C         61.7710   33.1620   85.5980 C.2   355  CYS355      0.2296
    173  O         61.8600   34.2520   85.0330 O.2   355  CYS355     -0.2864
    174  CB        59.9530   32.6420   87.2210 C.3   355  CYS355      0.0983
    175  SG        58.3720   31.8310   87.6200 S.3   355  CYS355     -0.0798
    176  N         63.4300   34.6530   82.0380 N.3   358  CYS358     -0.1221
    177  CA        63.1630   36.0300   81.6490 C.3   358  CYS358      0.1808
    178  C         63.5420   36.9930   82.7660 C.2   358  CYS358      0.2601
    179  O         64.1980   38.0010   82.5200 O.2   358  CYS358     -0.2717
    180  CB        61.6880   36.1980   81.2960 C.3   358  CYS358      0.0970
    181  SG        61.1390   35.2630   79.8250 S.3   358  CYS358     -0.0800
    182  N         63.1270   36.6660   83.9890 N.am  359  HIS359     -0.1975
    183  CA        63.4210   37.4710   85.1690 C.3   359  HIS359      0.1656
    184  C         64.7820   37.1430   85.7520 C.2   359  HIS359      0.2291
    185  O         64.9050   36.2810   86.6180 O.2   359  HIS359     -0.2864
    186  CB        62.3690   37.2340   86.2380 C.3   359  HIS359      0.0771
    187  CG        61.0200   37.7420   85.8650 C.ar  359  HIS359      0.0820
    188  ND1       60.7640   39.0810   85.6720 N.ar  359  HIS359     -0.2267
    189  CD2       59.8560   37.0970   85.6250 C.ar  359  HIS359      0.1154
    190  CE1       59.4990   39.2390   85.3290 C.ar  359  HIS359      0.1986
    191  NE2       58.9260   38.0500   85.2930 N.ar  359  HIS359     -0.2212
    192  N         65.1680   27.9080   77.2760 N.3   446  PHE446     -0.1241
    193  CA        64.1950   27.5580   78.2920 C.3   446  PHE446      0.1605
    194  C         64.4210   26.1740   78.8540 C.2   446  PHE446      0.2264
    195  O         63.9090   25.8440   79.9260 O.2   446  PHE446     -0.2867
    196  CB        62.7710   27.6890   77.7300 C.3   446  PHE446      0.0534
    197  CG        62.1930   29.0690   77.8850 C.ar  446  PHE446     -0.0203
    198  CD1       62.2070   29.9700   76.8210 C.ar  446  PHE446     -0.0042
    199  CD2       61.6720   29.4850   79.1120 C.ar  446  PHE446     -0.0042
    200  CE1       61.7150   31.2620   76.9730 C.ar  446  PHE446     -0.0003
    201  CE2       61.1750   30.7790   79.2790 C.ar  446  PHE446     -0.0003
    202  CZ        61.1970   31.6690   78.2090 C.ar  446  PHE446     -0.0000
@<TRIPOS>BOND
     1    73    72   ar
     2    73    71   ar
     3    72    70   ar
     4   133   132    2
     5   130   131    1
     6   131   132    1
     7   131   134    1
     8    71    69   ar
     9   137   139   ar
    10   137   135   ar
    11    70    68   ar
    12   139   138   ar
    13    66    65    2
    14    69    68   ar
    15   135   134    1
    16   135   136   ar
    17    68    67    1
    18    65    64    1
    19   138   136   ar
    20   120   119    2
    21    67    64    1
    22    64    63    1
    23   118   117    1
    24   118   119    1
    25   118   121    1
    26   119   123   am
    27   126   125    2
    28   125   124    1
    29   198   200   ar
    30   198   197   ar
    31   200   202   ar
    32   192   193    1
    33   121   122    1
    34   123   124    1
    35   124   127    1
    36   196   197    1
    37   196   193    1
    38   197   199   ar
    39     7     5    1
    40   202   201   ar
    41   106   105    1
    42   105   104    1
    43   193   194    1
    44   194   195    2
    45   127   128    1
    46   127   129    1
    47   199   201   ar
    48   102   101    2
    49     6     5    1
    50   100   101    1
    51   100    99    1
    52   100   103    1
    53     5     2    1
    54   101   107   am
    55     1     2    1
    56   181   180    1
    57     2     3    1
    58   110   109    2
    59   104   103    1
    60   109   108    1
    61    59    58    2
    62    61    60    1
    63   107   108    1
    64   108   111    1
    65    58    57    1
    66   148   146   am
    67   180   177    1
    68     3     8   am
    69     3     4    2
    70    60    57    1
    71    60    62    1
    72   177   176    1
    73   177   178    1
    74    85    84    2
    75     8     9    1
    76    87    89    1
    77    87    86    1
    78    57    56    1
    79   111   112    1
    80   146   147    2
    81   146   145    1
    82   179   178    2
    83    83    84    1
    84    83    86    1
    85    83    82    1
    86    93    92    2
    87   112   114   ar
    88   112   113   ar
    89   178   182   am
    90    84    90   am
    91    86    88    1
    92   114   116   ar
    93   145   144    1
    94    13    14    1
    95    13    12    1
    96    13    15    1
    97   169   166    1
    98    56    51   am
    99   113   115   ar
   100    92    91    1
   101    11    10    2
   102     9    12    1
   103     9    10    1
   104   168   167    2
   105   116   115   ar
   106   144   141    1
   107   166   167    1
   108   166   165    1
   109    10    16   am
   110    90    91    1
   111   182   183    1
   112   167   170   am
   113   155   154    1
   114   155   149    1
   115    91    94    1
   116    51    52    2
   117    51    50    1
   118   141   140    1
   119   141   142    1
   120   154   153    1
   121   173   172    2
   122   183   184    1
   123   183   186    1
   124    53    50    1
   125    53    54    1
   126    16    17    1
   127    16    22    1
   128   191   190   ar
   129   191   189   ar
   130   190   188   ar
   131    50    49    1
   132   170   171    1
   133   149   142   am
   134   149   150    1
   135   142   143    2
   136   172   171    1
   137   189   187   ar
   138    94    95    1
   139   188   187   ar
   140   184   185    2
   141   171   174    1
   142   187   186    1
   143   153   150    1
   144    54    55    1
   145    95    96    1
   146    17    18    1
   147    17    20    1
   148    22    21    1
   149   152   151    2
   150    74    75    1
   151    18    19    2
   152   150   151    1
   153    49    55    1
   154    49    42   am
   155    43    42    2
   156   151   156   am
   157   174   175    1
   158    75    76    1
   159    75    78    1
   160    20    21    1
   161    42    41    1
   162    96    97   ar
   163    96    98   ar
   164    76    77    2
   165   156   157    1
   166   158   159    2
   167   158   157    1
   168    78    79    1
   169    44    41    1
   170    44    45    1
   171   157   160    1
   172    41    40    1
   173    36    37    1
   174    36    33    1
   175    39    38    1
   176    79    81    1
   177    79    80    1
   178    37    38    1
   179    40    34   am
   180    46    45    1
   181    46    47    1
   182    35    34    2
   183    34    33    1
   184    33    32    1
   185   160   161    1
   186    47    48    1
   187   161   162    1
   188    32    29   am
   189    24    25    1
   190    24    23    1
   191    27    25   am
   192    27    28    1
   193    29    30    2
   194    29    28    1
   195   162   163   ar
   196   162   164   ar
   197    25    26    2
   198    28    31    1
