@<TRIPOS>MOLECULE
tmp/2e84A09.pdb
 207 198 0 0 0
SMALL
GASTEIGER

@<TRIPOS>ATOM
      1  N         48.1860   42.7930   51.4620 N.3   125  GLY125     -0.1210
      2  CA        48.9920   43.7740   52.1810 C.3   125  GLY125      0.1956
      3  C         50.4570   43.6330   51.7870 C.2   125  GLY125      0.2611
      4  O         50.7850   42.8270   50.9170 O.2   125  GLY125     -0.2717
      5  N         51.3540   44.3950   52.4060 N.am  126  LEU126     -0.1979
      6  CA        52.7840   44.1950   52.1500 C.3   126  LEU126      0.1596
      7  C         53.4720   43.4160   53.2860 C.2   126  LEU126      0.2287
      8  O         53.8830   43.9980   54.2970 O.2   126  LEU126     -0.2864
      9  CB        53.4950   45.5440   51.9470 C.3   126  LEU126      0.0297
     10  CG        52.8430   46.6280   51.0750 C.3   126  LEU126      0.0022
     11  CD1       53.8330   47.7490   50.8120 C.3   126  LEU126      0.0001
     12  CD2       52.3780   46.0270   49.7650 C.3   126  LEU126      0.0001
     13  N         57.0280   44.3740   51.0380 N.3   131  HIS131     -0.1241
     14  CA        57.4100   45.6570   51.5880 C.3   131  HIS131      0.1621
     15  C         58.8250   46.0090   51.1640 C.2   131  HIS131      0.2264
     16  O         59.0860   47.1190   50.7140 O.2   131  HIS131     -0.2867
     17  CB        57.3320   45.6220   53.1060 C.3   131  HIS131      0.0745
     18  CG        57.4430   46.9690   53.7430 C.ar  131  HIS131      0.0817
     19  ND1       58.6220   47.4470   54.2750 N.ar  131  HIS131     -0.2268
     20  CD2       56.5150   47.9320   53.9540 C.ar  131  HIS131      0.1154
     21  CE1       58.4120   48.6440   54.7920 C.ar  131  HIS131      0.1986
     22  NE2       57.1420   48.9610   54.6100 N.ar  131  HIS131     -0.2212
     23  N         59.3550   47.3820   47.7070 N.3   134  HIS134     -0.1226
     24  CA        59.0590   48.8030   47.5540 C.3   134  HIS134      0.1752
     25  C         60.1530   49.6660   48.1650 C.2   134  HIS134      0.2595
     26  O         60.5480   50.6790   47.5950 O.2   134  HIS134     -0.2718
     27  CB        57.7430   49.1400   48.2400 C.3   134  HIS134      0.0759
     28  CG        56.5480   48.5230   47.5880 C.ar  134  HIS134      0.0818
     29  ND1       56.2120   47.1980   47.7570 N.ar  134  HIS134     -0.2268
     30  CD2       55.6100   49.0510   46.7680 C.ar  134  HIS134      0.1154
     31  CE1       55.1160   46.9360   47.0670 C.ar  134  HIS134      0.1986
     32  NE2       54.7310   48.0440   46.4590 N.ar  134  HIS134     -0.2212
     33  N         60.6240   49.2620   49.3380 N.am  135  VAL135     -0.1980
     34  CA        61.7840   49.8760   49.9620 C.3   135  VAL135      0.1595
     35  C         62.9520   49.9310   48.9790 C.2   135  VAL135      0.2287
     36  O         63.7570   50.8630   49.0180 O.2   135  VAL135     -0.2864
     37  CB        62.2200   49.0780   51.2160 C.3   135  VAL135      0.0276
     38  CG1       63.4720   49.6850   51.8160 C.3   135  VAL135      0.0022
     39  CG2       61.1010   49.0780   52.2430 C.3   135  VAL135      0.0022
     40  N         60.3900   54.0540   43.0390 N.3   140  ILE140     -0.1245
     41  CA        59.9410   54.8590   44.1680 C.3   140  ILE140      0.1561
     42  C         61.1450   55.6660   44.6390 C.2   140  ILE140      0.2260
     43  O         62.1050   55.1160   45.1850 O.2   140  ILE140     -0.2867
     44  CB        59.4540   53.9720   45.3310 C.3   140  ILE140      0.0252
     45  CG1       58.3260   53.0590   44.8520 C.3   140  ILE140      0.0019
     46  CG2       58.9870   54.8430   46.4840 C.3   140  ILE140      0.0019
     47  CD1       58.0800   51.8750   45.7560 C.3   140  ILE140      0.0001
     48  N         66.6030   56.9930   51.5580 N.3   148  LYS148     -0.1231
     49  CA        65.4350   56.3610   52.1640 C.3   148  LYS148      0.1693
     50  C         64.1310   56.6570   51.4340 C.2   148  LYS148      0.2592
     51  O         63.8000   57.8080   51.1450 O.2   148  LYS148     -0.2718
     52  CB        65.3160   56.7710   53.6330 C.3   148  LYS148      0.0285
     53  CG        66.0830   55.8630   54.5760 C.3   148  LYS148      0.0035
     54  CD        66.1830   56.4370   55.9820 C.3   148  LYS148      0.0206
     55  CE        66.6670   55.3800   56.9790 C.3   148  LYS148      0.1093
     56  NZ        65.5860   54.4210   57.3840 N.3   148  LYS148     -0.1314
     57  N         63.3910   55.5860   51.1670 N.am  149  ASN149     -0.1960
     58  CA        62.1910   55.6010   50.3300 C.3   149  ASN149      0.1819
     59  C         60.9380   55.9750   51.1200 C.2   149  ASN149      0.2621
     60  O         59.9220   56.3550   50.5420 O.2   149  ASN149     -0.2715
     61  CB        61.9910   54.2080   49.7210 C.3   149  ASN149      0.1195
     62  CG        61.6440   54.2600   48.2670 C.2   149  ASN149      0.2630
     63  OD1       61.5810   55.3380   47.6740 O.2   149  ASN149     -0.2716
     64  ND2       61.4160   53.0990   47.6710 N.am  149  ASN149     -0.0877
     65  N         61.0230   55.8470   52.4400 N.am  150  CYS150     -0.1968
     66  CA        59.8590   55.8430   53.3220 C.3   150  CYS150      0.1712
     67  C         58.8600   56.9760   53.0840 C.2   150  CYS150      0.2296
     68  O         57.6490   56.7410   53.0120 O.2   150  CYS150     -0.2864
     69  CB        60.3330   55.8860   54.7750 C.3   150  CYS150      0.0983
     70  SG        61.9240   55.0360   55.0500 S.3   150  CYS150     -0.0798
     71  N         55.4500   57.0260   51.2470 N.3   153  CYS153     -0.1221
     72  CA        54.2130   56.3900   51.6800 C.3   153  CYS153      0.1808
     73  C         53.8000   56.7740   53.1150 C.2   153  CYS153      0.2601
     74  O         52.6210   56.9940   53.3940 O.2   153  CYS153     -0.2717
     75  CB        54.3500   54.8640   51.5620 C.3   153  CYS153      0.0970
     76  SG        54.8890   54.2160   49.9360 S.3   153  CYS153     -0.0800
     77  N         54.7730   56.8620   54.0180 N.am  154  HIS154     -0.1975
     78  CA        54.4950   57.0860   55.4380 C.3   154  HIS154      0.1656
     79  C         54.5070   58.5570   55.8530 C.2   154  HIS154      0.2291
     80  O         55.2050   59.3900   55.2620 O.2   154  HIS154     -0.2864
     81  CB        55.5010   56.3200   56.2950 C.3   154  HIS154      0.0771
     82  CG        55.2930   54.8380   56.2950 C.ar  154  HIS154      0.0820
     83  ND1       54.3490   54.2200   57.0860 N.ar  154  HIS154     -0.2267
     84  CD2       55.9330   53.8480   55.6300 C.ar  154  HIS154      0.1154
     85  CE1       54.4190   52.9140   56.9100 C.ar  154  HIS154      0.1986
     86  NE2       55.3710   52.6630   56.0320 N.ar  154  HIS154     -0.2212
     87  N         57.5010   55.8800   61.2250 N.3   171  GLU171     -0.1231
     88  CA        56.6240   55.2150   60.2880 C.3   171  GLU171      0.1699
     89  C         56.0200   53.9580   60.8920 C.2   171  GLU171      0.2592
     90  O         56.6900   53.1930   61.5790 O.2   171  GLU171     -0.2718
     91  CB        57.3770   54.8790   59.0100 C.3   171  GLU171      0.0402
     92  CG        58.6600   54.1510   59.2400 C.3   171  GLU171      0.1161
     93  CD        59.8630   55.0710   59.3140 C.2   171  GLU171      0.3649
     94  OE1       60.5800   54.9960   60.3330 O.co2 171  GLU171     -0.2457
     95  OE2       60.0960   55.8520   58.3570 O.co2 171  GLU171     -0.2457
     96  N         54.7340   53.7600   60.6390 N.am  172  ASP172     -0.1960
     97  CA        53.9840   52.6960   61.2820 C.3   172  ASP172      0.1840
     98  C         52.9700   52.1790   60.2660 C.2   172  ASP172      0.2623
     99  O         52.6970   52.8420   59.2680 O.2   172  ASP172     -0.2715
    100  CB        53.2860   53.2430   62.5320 C.3   172  ASP172      0.1450
    101  CG        52.9900   52.1610   63.5610 C.2   172  ASP172      0.3671
    102  OD1       52.6930   52.5060   64.7220 O.co2 172  ASP172     -0.2456
    103  OD2       53.0520   50.9660   63.2110 O.co2 172  ASP172     -0.2456
    104  N         52.4250   50.9910   60.4970 N.am  173  SER173     -0.1936
    105  CA        51.5080   50.4200   59.5250 C.3   173  SER173      0.2055
    106  C         50.2530   51.2960   59.3990 C.2   173  SER173      0.2643
    107  O         49.8160   51.9180   60.3660 O.2   173  SER173     -0.2714
    108  CB        51.1360   48.9820   59.9250 C.3   173  SER173      0.2130
    109  OG        49.8320   48.9050   60.4750 O.3   173  SER173     -0.2179
    110  N         49.6890   51.3460   58.1980 N.am  174  CYS174     -0.1953
    111  CA        48.4860   52.1260   57.9270 C.3   174  CYS174      0.1843
    112  C         47.3440   51.8780   58.9230 C.2   174  CYS174      0.2625
    113  O         46.5300   52.7610   59.1680 O.2   174  CYS174     -0.2714
    114  CB        47.9980   51.8300   56.5060 C.3   174  CYS174      0.0997
    115  SG        49.3380   51.7550   55.2720 S.3   174  CYS174     -0.0797
    116  N         47.2870   50.6810   59.4980 N.am  175  ARG175     -0.1977
    117  CA        46.1870   50.3150   60.3940 C.3   175  ARG175      0.1597
    118  C         46.2290   51.0170   61.7430 C.2   175  ARG175      0.2287
    119  O         45.1960   51.1700   62.3960 O.2   175  ARG175     -0.2864
    120  CB        46.1670   48.8050   60.6380 C.3   175  ARG175      0.0334
    121  CG        45.6500   47.9930   59.4790 C.3   175  ARG175      0.0492
    122  CD        45.6610   46.5190   59.8270 C.3   175  ARG175      0.2205
    123  NE        45.9050   45.7000   58.6460 N.pl3 175  ARG175     -0.0865
    124  CZ        44.9480   45.2630   57.8380 C.cat 175  ARG175      0.5346
    125  NH1       43.6790   45.5680   58.0850 N.pl3 175  ARG175      0.1354
    126  NH2       45.2620   44.5190   56.7870 N.pl3 175  ARG175      0.1354
    127  N         46.4830   55.9050   47.7120 N.3   196  GLN196     -0.1231
    128  CA        47.9270   56.0110   47.5890 C.3   196  GLN196      0.1698
    129  C         48.4620   54.9190   46.6660 C.2   196  GLN196      0.2592
    130  O         49.1960   55.1910   45.7160 O.2   196  GLN196     -0.2718
    131  CB        48.5700   55.9060   48.9730 C.3   196  GLN196      0.0381
    132  CG        49.9250   56.5500   49.0560 C.3   196  GLN196      0.0905
    133  CD        50.6610   56.1900   50.3220 C.2   196  GLN196      0.2608
    134  OE1       51.2880   55.1400   50.4030 O.2   196  GLN196     -0.2717
    135  NE2       50.5930   57.0620   51.3200 N.am  196  GLN196     -0.0878
    136  N         48.0670   53.6840   46.9410 N.am  197  CYS197     -0.1970
    137  CA        48.5850   52.5370   46.2180 C.3   197  CYS197      0.1712
    138  C         48.3350   52.6270   44.7210 C.2   197  CYS197      0.2296
    139  O         49.2770   52.5480   43.9300 O.2   197  CYS197     -0.2864
    140  CB        47.9500   51.2590   46.7580 C.3   197  CYS197      0.0983
    141  SG        47.9660   51.1550   48.5720 S.3   197  CYS197     -0.0798
    142  N         50.0070   55.6160   42.8280 N.3   200  CYS200     -0.1235
    143  CA        51.4270   55.5120   42.5660 C.3   200  CYS200      0.1677
    144  C         51.6960   54.5060   41.4700 C.2   200  CYS200      0.2270
    145  O         52.5390   54.7350   40.6080 O.2   200  CYS200     -0.2867
    146  CB        52.1910   55.1060   43.8160 C.3   200  CYS200      0.0956
    147  SG        53.9810   54.9690   43.5090 S.3   200  CYS200     -0.0801
    148  N         64.0320   45.3470   58.8340 N.3   239  LEU239     -0.1231
    149  CA        63.3990   46.6420   58.6030 C.3   239  LEU239      0.1693
    150  C         63.8790   47.6970   59.6070 C.2   239  LEU239      0.2592
    151  O         63.5640   47.6280   60.7990 O.2   239  LEU239     -0.2718
    152  CB        61.8760   46.4990   58.6680 C.3   239  LEU239      0.0284
    153  CG        61.0610   47.7430   58.3100 C.3   239  LEU239      0.0019
    154  CD1       61.5670   48.3370   57.0020 C.3   239  LEU239      0.0001
    155  CD2       59.5850   47.3680   58.2080 C.3   239  LEU239      0.0001
    156  N         64.6350   48.6740   59.1060 N.am  240  GLU240     -0.1966
    157  CA        65.3430   49.6400   59.9490 C.3   240  GLU240      0.1733
    158  C         64.5290   50.8920   60.2530 C.2   240  GLU240      0.2616
    159  O         64.3020   51.7250   59.3780 O.2   240  GLU240     -0.2715
    160  CB        66.6620   50.0570   59.2820 C.3   240  GLU240      0.0429
    161  CG        66.9230   49.4290   57.8990 C.3   240  GLU240      0.1163
    162  CD        66.0540   50.0110   56.7830 C.2   240  GLU240      0.3649
    163  OE1       65.4500   49.2200   56.0290 O.co2 240  GLU240     -0.2457
    164  OE2       65.9820   51.2540   56.6540 O.co2 240  GLU240     -0.2457
    165  N         64.1210   51.0360   61.5060 N.am  241  ARG241     -0.1977
    166  CA        63.2250   52.1090   61.9140 C.3   241  ARG241      0.1597
    167  C         63.7050   52.7020   63.2470 C.2   241  ARG241      0.2287
    168  O         62.9690   53.4210   63.9370 O.2   241  ARG241     -0.2864
    169  CB        61.8080   51.5400   62.0420 C.3   241  ARG241      0.0334
    170  CG        60.7080   52.5600   62.1860 C.3   241  ARG241      0.0492
    171  CD        60.4130   52.8140   63.6440 C.3   241  ARG241      0.2205
    172  NE        59.0020   53.0680   63.8720 N.pl3 241  ARG241     -0.0865
    173  CZ        58.4950   53.4910   65.0190 C.cat 241  ARG241      0.5346
    174  NH1       59.2900   53.7150   66.0580 N.pl3 241  ARG241      0.1354
    175  NH2       57.1850   53.6820   65.1270 N.pl3 241  ARG241      0.1354
    176  N         55.3310   40.1660   61.3600 N.3   281  THR281     -0.1203
    177  CA        55.0440   41.5900   61.4010 C.3   281  THR281      0.1994
    178  C         55.4110   42.2080   62.7440 C.2   281  THR281      0.2618
    179  O         55.4660   41.5210   63.7580 O.2   281  THR281     -0.2717
    180  CB        53.5430   41.8680   61.1460 C.3   281  THR281      0.1784
    181  OG1       52.7580   41.1810   62.1300 O.3   281  THR281     -0.2211
    182  CG2       53.1370   41.4100   59.7610 C.3   281  THR281      0.0376
    183  N         55.6480   43.5160   62.7380 N.am  282  CYS282     -0.1955
    184  CA        55.7540   44.2870   63.9710 C.3   282  CYS282      0.1843
    185  C         54.3880   44.3490   64.6870 C.2   282  CYS282      0.2625
    186  O         54.2950   44.1860   65.9110 O.2   282  CYS282     -0.2714
    187  CB        56.2210   45.7050   63.6460 C.3   282  CYS282      0.0997
    188  SG        57.4750   45.8110   62.3240 S.3   282  CYS282     -0.0797
    189  N         53.3330   44.5770   63.9090 N.am  283  ARG283     -0.1977
    190  CA        52.0050   44.7830   64.4630 C.3   283  ARG283      0.1597
    191  C         51.5160   43.5680   65.2540 C.2   283  ARG283      0.2287
    192  O         50.6020   43.6800   66.0790 O.2   283  ARG283     -0.2864
    193  CB        51.0180   45.1290   63.3400 C.3   283  ARG283      0.0334
    194  CG        49.5940   45.3460   63.8180 C.3   283  ARG283      0.0492
    195  CD        48.7630   46.1380   62.8170 C.3   283  ARG283      0.2205
    196  NE        48.4590   47.4600   63.3520 N.pl3 283  ARG283     -0.0865
    197  CZ        47.4000   47.7360   64.1060 C.cat 283  ARG283      0.5346
    198  NH1       46.5260   46.7830   64.4110 N.pl3 283  ARG283      0.1354
    199  NH2       47.2310   48.9590   64.5810 N.pl3 283  ARG283      0.1354
    200  N         53.1300   51.1330   66.8430 N.3   290  ILE290     -0.1245
    201  CA        54.4960   50.9040   67.3040 C.3   290  ILE290      0.1561
    202  C         54.8610   51.9290   68.3750 C.2   290  ILE290      0.2260
    203  O         55.1990   53.0760   68.0750 O.2   290  ILE290     -0.2867
    204  CB        55.5260   50.9750   66.1470 C.3   290  ILE290      0.0252
    205  CG1       55.3290   49.7850   65.2060 C.3   290  ILE290      0.0019
    206  CG2       56.9490   50.9550   66.7110 C.3   290  ILE290      0.0019
    207  CD1       56.1940   49.8410   63.9690 C.3   290  ILE290      0.0001
@<TRIPOS>BOND
     1   145   144    2
     2   144   143    1
     3   143   142    1
     4   143   146    1
     5    40    41    1
     6   147   146    1
     7   139   138    2
     8    41    42    1
     9    41    44    1
    10    42    43    2
    11   138   137    1
    12    45    44    1
    13    45    47    1
    14    44    46    1
    15   130   129    2
    16   137   140    1
    17   137   136    1
    18    32    30   ar
    19    32    31   ar
    20   129   136   am
    21   129   128    1
    22   140   141    1
    23    30    28   ar
    24    31    29   ar
    25    24    23    1
    26    24    25    1
    27    24    27    1
    28    28    29   ar
    29    28    27    1
    30   128   127    1
    31   128   131    1
    32    26    25    2
    33    64    62   am
    34    63    62    2
    35    25    33   am
    36    62    61    1
    37   131   132    1
    38    35    36    2
    39    35    34    1
    40   132   133    1
    41    33    34    1
    42    61    58    1
    43    12    10    1
    44    76    75    1
    45    34    37    1
    46   133   134    2
    47   133   135   am
    48    58    59    1
    49    58    57    1
    50    60    59    2
    51    16    15    2
    52    11    10    1
    53     4     3    2
    54    13    14    1
    55    10     9    1
    56    59    65   am
    57    51    50    2
    58    15    14    1
    59    57    50   am
    60    37    38    1
    61    37    39    1
    62    71    72    1
    63    50    49    1
    64     1     2    1
    65    48    49    1
    66    75    72    1
    67    14    17    1
    68    72    73    1
    69     3     2    1
    70     3     5   am
    71     9     6    1
    72     6     5    1
    73     6     7    1
    74    49    52    1
    75    65    66    1
    76    68    67    2
    77    67    66    1
    78    17    18    1
    79    73    74    2
    80    73    77   am
    81     7     8    2
    82    66    69    1
    83    52    53    1
    84    18    20   ar
    85    18    19   ar
    86    20    22   ar
    87    77    78    1
    88    19    21   ar
    89    53    54    1
    90    22    21   ar
    91    69    70    1
    92    80    79    2
    93   115   114    1
    94    78    79    1
    95    78    81    1
    96    84    86   ar
    97    84    82   ar
    98    54    55    1
    99   163   162   ar
   100    86    85   ar
   101    82    81    1
   102    82    83   ar
   103   114   111    1
   104   164   162   ar
   105   162   161    1
   106   126   124    1
   107    85    83   ar
   108    55    56    1
   109   154   153    1
   110   124   125    1
   111   124   123    2
   112   161   160    1
   113   111   110    1
   114   111   112    1
   115   110   106   am
   116   155   153    1
   117   153   152    1
   118    95    93   ar
   119   149   152    1
   120   149   148    1
   121   149   150    1
   122   123   122    1
   123   112   113    2
   124   112   116   am
   125    91    92    1
   126    91    88    1
   127   156   150   am
   128   156   157    1
   129    92    93    1
   130    99    98    2
   131   160   157    1
   132    93    94   ar
   133   159   158    2
   134   106   105    1
   135   106   107    2
   136   121   122    1
   137   121   120    1
   138   116   117    1
   139   105   108    1
   140   105   104    1
   141   150   151    2
   142   182   180    1
   143   108   109    1
   144   157   158    1
   145   158   165   am
   146    98   104   am
   147    98    97    1
   148    88    89    1
   149    88    87    1
   150   117   120    1
   151   117   118    1
   152    96    89   am
   153    96    97    1
   154    89    90    2
   155   180   177    1
   156   180   181    1
   157    97   100    1
   158   176   177    1
   159   177   178    1
   160   165   166    1
   161   118   119    2
   162   166   169    1
   163   166   167    1
   164   169   170    1
   165   170   171    1
   166   188   187    1
   167   100   101    1
   168   183   178   am
   169   183   184    1
   170   178   179    2
   171   195   196    1
   172   195   194    1
   173   103   101   ar
   174   167   168    2
   175   193   194    1
   176   193   190    1
   177   196   197    2
   178   101   102   ar
   179   171   172    1
   180   187   184    1
   181   172   173    2
   182   189   190    1
   183   189   185   am
   184   207   205    1
   185   184   185    1
   186   197   198    1
   187   197   199    1
   188   190   191    1
   189   185   186    2
   190   173   175    1
   191   173   174    1
   192   205   204    1
   193   191   192    2
   194   204   206    1
   195   204   201    1
   196   200   201    1
   197   201   202    1
   198   203   202    2
