@<TRIPOS>MOLECULE
tmp/2e84A06.pdb
 228 214 0 0 0
SMALL
GASTEIGER

@<TRIPOS>ATOM
      1  N         31.7600   44.8510   42.6660 N.3    15  VAL15      -0.1245
      2  CA        31.4150   45.9580   43.5350 C.3    15  VAL15       0.1561
      3  C         29.9290   45.8580   43.8690 C.2    15  VAL15       0.2260
      4  O         29.0840   45.7770   42.9710 O.2    15  VAL15      -0.2867
      5  CB        31.7080   47.3010   42.8420 C.3    15  VAL15       0.0252
      6  CG1       31.2430   48.4520   43.7140 C.3    15  VAL15       0.0019
      7  CG2       33.1970   47.4170   42.5570 C.3    15  VAL15       0.0019
      8  N         27.0510   47.8720   44.9160 N.3    17  ILE17      -0.1245
      9  CA        26.6040   49.2380   45.0790 C.3    17  ILE17       0.1561
     10  C         25.3070   49.2500   45.8830 C.2    17  ILE17       0.2260
     11  O         24.2790   48.7310   45.4500 O.2    17  ILE17      -0.2867
     12  CB        26.4020   49.9260   43.7120 C.3    17  ILE17       0.0252
     13  CG1       27.6320   49.6960   42.8320 C.3    17  ILE17       0.0019
     14  CG2       26.2340   51.4170   43.9110 C.3    17  ILE17       0.0019
     15  CD1       27.5080   50.2700   41.4390 C.3    17  ILE17       0.0001
     16  N         25.0650   52.1880   48.1830 N.3    19  VAL19      -0.1245
     17  CA        25.2790   53.4680   48.8450 C.3    19  VAL19       0.1561
     18  C         23.9710   54.1690   49.2070 C.2    19  VAL19       0.2260
     19  O         23.9320   54.9650   50.1440 O.2    19  VAL19      -0.2867
     20  CB        26.1180   54.4110   47.9560 C.3    19  VAL19       0.0252
     21  CG1       26.4070   55.7220   48.6920 C.3    19  VAL19       0.0019
     22  CG2       27.4110   53.7200   47.5590 C.3    19  VAL19       0.0019
     23  N         28.4300   45.2940   40.4250 N.3    33  PHE33      -0.1241
     24  CA        29.1410   45.9730   39.3460 C.3    33  PHE33       0.1605
     25  C         30.5170   45.3430   39.1350 C.2    33  PHE33       0.2264
     26  O         31.3990   45.4830   39.9740 O.2    33  PHE33      -0.2867
     27  CB        29.2760   47.4590   39.6930 C.3    33  PHE33       0.0534
     28  CG        30.1050   48.2420   38.7230 C.ar   33  PHE33      -0.0203
     29  CD1       29.5260   48.8070   37.5910 C.ar   33  PHE33      -0.0042
     30  CD2       31.4710   48.4290   38.9450 C.ar   33  PHE33      -0.0042
     31  CE1       30.2930   49.5520   36.6890 C.ar   33  PHE33      -0.0003
     32  CE2       32.2520   49.1750   38.0450 C.ar   33  PHE33      -0.0003
     33  CZ        31.6580   49.7370   36.9160 C.ar   33  PHE33      -0.0000
     34  N         33.8180   45.5210   38.0790 N.3    35  HIS35      -0.1241
     35  CA        34.6770   46.6550   37.7840 C.3    35  HIS35       0.1621
     36  C         35.7130   46.4030   36.6750 C.2    35  HIS35       0.2264
     37  O         35.8550   47.2160   35.7560 O.2    35  HIS35      -0.2867
     38  CB        35.3870   47.0960   39.0690 C.3    35  HIS35       0.0745
     39  CG        36.1200   48.3920   38.9350 C.ar   35  HIS35       0.0817
     40  ND1       37.3080   48.5040   38.2450 N.ar   35  HIS35      -0.2268
     41  CD2       35.8130   49.6380   39.3650 C.ar   35  HIS35       0.1154
     42  CE1       37.6990   49.7650   38.2510 C.ar   35  HIS35       0.1986
     43  NE2       36.8100   50.4740   38.9220 N.ar   35  HIS35      -0.2212
     44  N         34.5220   46.5630   33.2150 N.3    38  HIS38      -0.1226
     45  CA        34.2810   47.9210   32.7790 C.3    38  HIS38       0.1752
     46  C         35.5290   48.7050   32.4060 C.2    38  HIS38       0.2596
     47  O         35.5320   49.4210   31.4050 O.2    38  HIS38      -0.2718
     48  CB        33.5280   48.6790   33.8550 C.3    38  HIS38       0.0759
     49  CG        32.0780   48.3440   33.9060 C.ar   38  HIS38       0.0818
     50  ND1       31.5770   47.3300   34.6940 N.ar   38  HIS38      -0.2268
     51  CD2       31.0190   48.8790   33.2580 C.ar   38  HIS38       0.1154
     52  CE1       30.2700   47.2550   34.5290 C.ar   38  HIS38       0.1986
     53  NE2       29.9070   48.1840   33.6630 N.ar   38  HIS38      -0.2212
     54  N         36.5810   48.5950   33.2110 N.am   39  SER39      -0.1952
     55  CA        37.7700   49.3990   32.9690 C.3    39  SER39       0.1924
     56  C         38.5070   48.8880   31.7340 C.2    39  SER39       0.2314
     57  O         39.0450   49.6800   30.9620 O.2    39  SER39      -0.2863
     58  CB        38.6980   49.3990   34.1960 C.3    39  SER39       0.2116
     59  OG        39.1630   48.0990   34.5220 O.3    39  SER39      -0.2180
     60  N         36.7630   50.0980   28.7090 N.3    42  VAL42      -0.1245
     61  CA        37.0020   51.5190   28.4900 C.3    42  VAL42       0.1561
     62  C         38.4190   51.7900   27.9790 C.2    42  VAL42       0.2260
     63  O         38.6200   52.6140   27.0920 O.2    42  VAL42      -0.2867
     64  CB        36.7490   52.3230   29.7880 C.3    42  VAL42       0.0252
     65  CG1       37.3210   53.7300   29.6730 C.3    42  VAL42       0.0019
     66  CG2       35.2460   52.3870   30.0600 C.3    42  VAL42       0.0019
     67  N         41.2510   56.7450   30.9060 N.3    51  GLU51      -0.1231
     68  CA        40.4830   55.5310   31.1710 C.3    51  GLU51       0.1699
     69  C         39.5790   55.6270   32.4030 C.2    51  GLU51       0.2592
     70  O         38.3970   55.2780   32.3450 O.2    51  GLU51      -0.2718
     71  CB        41.4220   54.3290   31.3210 C.3    51  GLU51       0.0402
     72  CG        42.5820   54.5340   32.2850 C.3    51  GLU51       0.1161
     73  CD        43.7860   55.1790   31.6220 C.2    51  GLU51       0.3649
     74  OE1       44.0440   54.8890   30.4330 O.co2  51  GLU51      -0.2457
     75  OE2       44.4770   55.9780   32.2880 O.co2  51  GLU51      -0.2457
     76  N         40.1320   56.1020   33.5140 N.am   52  CYS52      -0.1970
     77  CA        39.3800   56.1920   34.7580 C.3    52  CYS52       0.1712
     78  C         38.5530   57.4730   34.8180 C.2    52  CYS52       0.2296
     79  O         37.5830   57.5660   35.5690 O.2    52  CYS52      -0.2864
     80  CB        40.3310   56.1590   35.9480 C.3    52  CYS52       0.0983
     81  SG        41.6920   54.9660   35.8060 S.3    52  CYS52      -0.0798
     82  N         36.6320   58.6640   32.6870 N.3    54  THR54      -0.1203
     83  CA        35.2940   58.3840   32.1910 C.3    54  THR54       0.1994
     84  C         34.2690   58.2990   33.3200 C.2    54  THR54       0.2618
     85  O         33.1400   58.7530   33.1580 O.2    54  THR54      -0.2717
     86  CB        35.2460   57.0600   31.4010 C.3    54  THR54       0.1784
     87  OG1       36.1700   57.1100   30.3050 O.3    54  THR54      -0.2211
     88  CG2       33.8530   56.8270   30.8630 C.3    54  THR54       0.0376
     89  N         34.6590   57.7250   34.4570 N.am   55  CYS55      -0.1955
     90  CA        33.7200   57.4880   35.5570 C.3    55  CYS55       0.1843
     91  C         34.1480   58.1030   36.8920 C.2    55  CYS55       0.2625
     92  O         33.3650   58.1630   37.8500 O.2    55  CYS55      -0.2714
     93  CB        33.5170   55.9930   35.7720 C.3    55  CYS55       0.0997
     94  SG        32.9310   55.0510   34.3350 S.3    55  CYS55      -0.0797
     95  N         35.3980   58.5330   36.9730 N.am   56  HIS56      -0.1973
     96  CA        35.8550   59.1520   38.1950 C.3    56  HIS56       0.1656
     97  C         36.2760   60.5710   37.9270 C.2    56  HIS56       0.2291
     98  O         36.9360   60.8570   36.9330 O.2    56  HIS56      -0.2864
     99  CB        37.0020   58.3480   38.8030 C.3    56  HIS56       0.0771
    100  CG        36.5870   56.9900   39.2700 C.ar   56  HIS56       0.0820
    101  ND1       35.8130   56.7980   40.3930 N.ar   56  HIS56      -0.2267
    102  CD2       36.7810   55.7630   38.7310 C.ar   56  HIS56       0.1154
    103  CE1       35.5440   55.5110   40.5240 C.ar   56  HIS56       0.1986
    104  NE2       36.1180   54.8630   39.5280 N.ar   56  HIS56      -0.2212
    105  N         42.1220   61.7930   42.2850 N.3    64  MET64      -0.1245
    106  CA        40.9490   61.1330   41.7210 C.3    64  MET64       0.1570
    107  C         39.9650   60.6540   42.7910 C.2    64  MET64       0.2261
    108  O         40.3580   60.0420   43.7830 O.2    64  MET64      -0.2867
    109  CB        41.3690   59.9390   40.8680 C.3    64  MET64       0.0387
    110  CG        40.1930   59.2030   40.2430 C.3    64  MET64       0.0595
    111  SD        40.6830   57.7100   39.3670 S.3    64  MET64      -0.1393
    112  CE        40.2830   56.4140   40.6070 C.3    64  MET64       0.0692
    113  N         37.1860   58.2310   44.3500 N.3    66  LEU66      -0.1231
    114  CA        36.8570   56.8120   44.2780 C.3    66  LEU66       0.1693
    115  C         35.3410   56.6200   44.2420 C.2    66  LEU66       0.2592
    116  O         34.8360   55.5160   44.4430 O.2    66  LEU66      -0.2718
    117  CB        37.4440   56.0600   45.4780 C.3    66  LEU66       0.0284
    118  CG        38.9590   56.1360   45.7020 C.3    66  LEU66       0.0019
    119  CD1       39.3470   55.2630   46.8950 C.3    66  LEU66       0.0001
    120  CD2       39.6940   55.6830   44.4590 C.3    66  LEU66       0.0001
    121  N         34.6190   57.7060   43.9950 N.am   67  LYS67      -0.1966
    122  CA        33.1680   57.6390   43.8500 C.3    67  LYS67       0.1728
    123  C         32.7870   57.6910   42.3700 C.2    67  LYS67       0.2616
    124  O         33.5580   58.1870   41.5470 O.2    67  LYS67      -0.2715
    125  CB        32.5130   58.7990   44.6140 C.3    67  LYS67       0.0311
    126  CG        32.6790   58.7170   46.1330 C.3    67  LYS67       0.0038
    127  CD        31.9540   59.8530   46.8490 C.3    67  LYS67       0.0206
    128  CE        31.9990   59.6720   48.3620 C.3    67  LYS67       0.1093
    129  NZ        31.1170   58.5530   48.8230 N.3    67  LYS67      -0.1314
    130  N         31.6050   57.1790   42.0350 N.am   68  PHE68      -0.1974
    131  CA        31.1430   57.1720   40.6420 C.3    68  PHE68       0.1639
    132  C         30.4330   58.4660   40.2510 C.2    68  PHE68       0.2290
    133  O         29.4550   58.8750   40.8900 O.2    68  PHE68      -0.2864
    134  CB        30.2000   55.9930   40.3900 C.3    68  PHE68       0.0560
    135  CG        29.6770   55.9240   38.9820 C.ar   68  PHE68      -0.0200
    136  CD1       30.5300   55.6440   37.9210 C.ar   68  PHE68      -0.0042
    137  CD2       28.3230   56.1190   38.7180 C.ar   68  PHE68      -0.0042
    138  CE1       30.0480   55.5580   36.6220 C.ar   68  PHE68      -0.0003
    139  CE2       27.8270   56.0330   37.4140 C.ar   68  PHE68      -0.0003
    140  CZ        28.6930   55.7520   36.3660 C.ar   68  PHE68      -0.0000
    141  N         30.8300   61.4990   40.7030 N.3    70  ARG70      -0.1245
    142  CA        30.5880   62.4890   41.7440 C.3    70  ARG70       0.1563
    143  C         31.8020   62.6380   42.6560 C.2    70  ARG70       0.2260
    144  O         32.6660   61.7570   42.7060 O.2    70  ARG70      -0.2867
    145  CB        29.3520   62.0990   42.5710 C.3    70  ARG70       0.0307
    146  CG        29.4680   60.7630   43.2930 C.3    70  ARG70       0.0489
    147  CD        28.1870   60.4030   44.0260 C.3    70  ARG70       0.2205
    148  NE        28.3820   59.2820   44.9450 N.pl3  70  ARG70      -0.0865
    149  CZ        28.5810   58.0190   44.5660 C.cat  70  ARG70       0.5346
    150  NH1       28.6150   57.7020   43.2730 N.pl3  70  ARG70       0.1354
    151  NH2       28.7480   57.0690   45.4830 N.pl3  70  ARG70       0.1354
    152  N         23.2410   57.5630   39.0200 N.3    83  TYR83      -0.1241
    153  CA        23.4490   56.1890   38.5850 C.3    83  TYR83       0.1605
    154  C         22.6770   55.8200   37.3170 C.2    83  TYR83       0.2264
    155  O         23.2870   55.5000   36.3000 O.2    83  TYR83      -0.2867
    156  CB        23.1260   55.2160   39.7220 C.3    83  TYR83       0.0534
    157  CG        24.2140   55.1620   40.7810 C.ar   83  TYR83      -0.0201
    158  CD1       24.0240   55.7320   42.0400 C.ar   83  TYR83      -0.0009
    159  CD2       25.4370   54.5390   40.5220 C.ar   83  TYR83      -0.0009
    160  CE1       25.0250   55.6830   43.0170 C.ar   83  TYR83       0.0417
    161  CE2       26.4420   54.4820   41.4890 C.ar   83  TYR83       0.0417
    162  CZ        26.2290   55.0550   42.7370 C.ar   83  TYR83       0.1957
    163  OH        27.2060   54.9770   43.7080 O.3    83  TYR83      -0.2866
    164  N         24.7670   55.2050   34.0950 N.3    87  CYS87      -0.1235
    165  CA        24.8760   53.7620   33.9000 C.3    87  CYS87       0.1677
    166  C         24.0820   53.2900   32.6880 C.2    87  CYS87       0.2270
    167  O         24.6340   52.6700   31.7800 O.2    87  CYS87      -0.2867
    168  CB        24.3780   53.0310   35.1450 C.3    87  CYS87       0.0956
    169  SG        25.2250   53.5260   36.6730 S.3    87  CYS87      -0.0801
    170  N         25.2570   55.2650   29.2850 N.3    90  CYS90      -0.1235
    171  CA        26.3340   54.6900   28.4850 C.3    90  CYS90       0.1677
    172  C         25.9410   53.3650   27.8430 C.2    90  CYS90       0.2270
    173  O         26.3520   53.0650   26.7180 O.2    90  CYS90      -0.2867
    174  CB        27.5870   54.4910   29.3450 C.3    90  CYS90       0.0956
    175  SG        28.9330   53.5210   28.5740 S.3    90  CYS90      -0.0801
    176  N         40.5420   51.2500   53.6840 N.3   190  ARG190     -0.1245
    177  CA        40.0490   50.9380   52.3370 C.3   190  ARG190      0.1563
    178  C         40.3300   52.0630   51.3420 C.2   190  ARG190      0.2260
    179  O         40.9730   51.8560   50.3150 O.2   190  ARG190     -0.2867
    180  CB        38.5400   50.6640   52.4020 C.3   190  ARG190      0.0307
    181  CG        37.8570   50.3170   51.0890 C.3   190  ARG190      0.0489
    182  CD        36.4230   49.8360   51.3570 C.3   190  ARG190      0.2205
    183  NE        35.6600   49.5350   50.1410 N.pl3 190  ARG190     -0.0865
    184  CZ        34.4510   48.9670   50.1220 C.cat 190  ARG190      0.5346
    185  NH1       33.8420   48.6270   51.2520 N.pl3 190  ARG190      0.1354
    186  NH2       33.8520   48.7130   48.9660 N.pl3 190  ARG190      0.1354
    187  N         43.4370   52.4610   48.5400 N.3   194  HIS194     -0.1241
    188  CA        43.0230   52.6480   47.1530 C.3   194  HIS194      0.1621
    189  C         43.5410   53.9450   46.5640 C.2   194  HIS194      0.2264
    190  O         43.8310   54.0220   45.3660 O.2   194  HIS194     -0.2867
    191  CB        41.5030   52.6020   47.0350 C.3   194  HIS194      0.0745
    192  CG        40.9390   51.2280   47.1860 C.ar  194  HIS194      0.0817
    193  ND1       39.6120   50.9960   47.4730 N.ar  194  HIS194     -0.2268
    194  CD2       41.5280   50.0110   47.1090 C.ar  194  HIS194      0.1154
    195  CE1       39.4060   49.6950   47.5660 C.ar  194  HIS194      0.1986
    196  NE2       40.5520   49.0750   47.3490 N.ar  194  HIS194     -0.2212
    197  N         47.0700   52.7920   44.3340 N.3   198  ILE198     -0.1245
    198  CA        46.7020   52.7650   42.9220 C.3   198  ILE198      0.1561
    199  C         47.1930   54.0120   42.2020 C.2   198  ILE198      0.2260
    200  O         47.4920   53.9680   41.0160 O.2   198  ILE198     -0.2867
    201  CB        45.1680   52.6590   42.7160 C.3   198  ILE198      0.0252
    202  CG1       44.6180   51.4380   43.4520 C.3   198  ILE198      0.0019
    203  CG2       44.8470   52.5210   41.2240 C.3   198  ILE198      0.0019
    204  CD1       43.1270   51.2470   43.2770 C.3   198  ILE198      0.0001
    205  N         49.9580   53.8100   39.0250 N.3   202  ARG202     -0.1245
    206  CA        49.5770   54.3390   37.7260 C.3   202  ARG202      0.1563
    207  C         50.6050   55.3590   37.2710 C.2   202  ARG202      0.2260
    208  O         50.9460   55.4160   36.0910 O.2   202  ARG202     -0.2867
    209  CB        48.1770   54.9560   37.7880 C.3   202  ARG202      0.0307
    210  CG        47.1040   53.9640   38.2590 C.3   202  ARG202      0.0489
    211  CD        45.7080   54.5420   38.1480 C.3   202  ARG202      0.2205
    212  NE        45.4830   55.0270   36.7940 N.pl3 202  ARG202     -0.0865
    213  CZ        44.7810   56.1110   36.4910 C.cat 202  ARG202      0.5346
    214  NH1       44.2170   56.8280   37.4560 N.pl3 202  ARG202      0.1354
    215  NH2       44.6750   56.4940   35.2240 N.pl3 202  ARG202      0.1354
    216  N         46.7830   47.5500   39.1040 N.3   216  VAL216     -0.1245
    217  CA        45.7570   48.5880   39.1630 C.3   216  VAL216      0.1561
    218  C         44.3430   48.0200   39.0820 C.2   216  VAL216      0.2260
    219  O         43.4180   48.5520   39.6960 O.2   216  VAL216     -0.2867
    220  CB        45.9530   49.6110   38.0290 C.3   216  VAL216      0.0252
    221  CG1       44.7900   50.6030   38.0050 C.3   216  VAL216      0.0019
    222  CG2       47.2870   50.3390   38.2290 C.3   216  VAL216      0.0019
    223  N         41.2100   45.4410   39.7870 N.3   218  CYS218     -0.1235
    224  CA        40.7850   44.7970   41.0200 C.3   218  CYS218      0.1677
    225  C         41.4540   43.4370   41.2330 C.2   218  CYS218      0.2270
    226  O         41.9770   43.1530   42.3120 O.2   218  CYS218     -0.2867
    227  CB        39.2680   44.6370   41.0250 C.3   218  CYS218      0.0956
    228  SG        38.3540   46.1300   40.5200 S.3   218  CYS218     -0.0801
@<TRIPOS>BOND
     1   173   172    2
     2    63    62    2
     3   172   171    1
     4    62    61    1
     5   171   170    1
     6   171   174    1
     7    61    60    1
     8    61    64    1
     9   175   174    1
    10    65    64    1
    11    64    66    1
    12    87    86    1
    13    74    73   ar
    14    88    86    1
    15    67    68    1
    16    57    56    2
    17    68    71    1
    18    68    69    1
    19    71    72    1
    20    86    83    1
    21    47    46    2
    22    73    72    1
    23    73    75   ar
    24    56    55    1
    25   167   166    2
    26    83    82    1
    27    83    84    1
    28    70    69    2
    29    69    76   am
    30    46    45    1
    31    46    54   am
    32   166   165    1
    33    45    44    1
    34    45    48    1
    35    55    54    1
    36    55    58    1
    37    85    84    2
    38    51    53   ar
    39    51    49   ar
    40    84    89   am
    41    76    77    1
    42    53    52   ar
    43    48    49    1
    44   165   164    1
    45   165   168    1
    46    49    50   ar
    47    58    59    1
    48    94    93    1
    49    89    90    1
    50    52    50   ar
    51    77    78    1
    52    77    80    1
    53    78    79    2
    54   168   169    1
    55   215   213    1
    56    90    93    1
    57    90    91    1
    58    37    36    2
    59    81    80    1
    60   208   207    2
    61   155   154    2
    62   140   138   ar
    63   140   139   ar
    64   213   212    2
    65   213   214    1
    66   138   136   ar
    67    36    35    1
    68    31    33   ar
    69    31    29   ar
    70   212   211    1
    71    91    95   am
    72    91    92    2
    73    33    32   ar
    74    98    97    2
    75    95    96    1
    76   207   206    1
    77   154   153    1
    78   139   137   ar
    79    29    28   ar
    80   206   209    1
    81   206   205    1
    82    35    34    1
    83    35    38    1
    84   209   210    1
    85   136   135   ar
    86    97    96    1
    87   221   220    1
    88   220   222    1
    89   220   217    1
    90    32    30   ar
    91   211   210    1
    92    96    99    1
    93    40    42   ar
    94    40    39   ar
    95    42    43   ar
    96   153   152    1
    97   153   156    1
    98   137   135   ar
    99    28    30   ar
   100    28    27    1
   101   102   100   ar
   102   102   104   ar
   103    99   100    1
   104    43    41   ar
   105    39    38    1
   106    39    41   ar
   107   135   134    1
   108   218   217    1
   109   218   219    2
   110   216   217    1
   111    25    24    1
   112    25    26    2
   113   100   101   ar
   114    24    27    1
   115    24    23    1
   116   111   110    1
   117   111   112    1
   118   104   103   ar
   119   156   157    1
   120   223   224    1
   121   110   109    1
   122   132   131    1
   123   132   133    2
   124   134   131    1
   125   101   103   ar
   126   228   227    1
   127   159   157   ar
   128   159   161   ar
   129   131   130    1
   130   141   142    1
   131   157   158   ar
   132   109   106    1
   133   200   199    2
   134   224   227    1
   135   224   225    1
   136   203   201    1
   137   225   226    2
   138    15    13    1
   139   161   162   ar
   140   124   123    2
   141   106   105    1
   142   106   107    1
   143   142   145    1
   144   142   143    1
   145   130   123   am
   146   158   160   ar
   147   199   198    1
   148   123   122    1
   149     7     5    1
   150   145   146    1
   151   143   144    2
   152     1     2    1
   153   201   198    1
   154   201   202    1
   155   162   160   ar
   156   162   163    1
   157   107   108    2
   158    13    12    1
   159     5     2    1
   160     5     6    1
   161   198   197    1
   162     4     3    2
   163   150   149    1
   164   204   202    1
   165   146   147    1
   166     2     3    1
   167    12    14    1
   168    12     9    1
   169   122   121    1
   170   122   125    1
   171   121   115   am
   172   147   148    1
   173   115   114    1
   174   115   116    2
   175   114   113    1
   176   114   117    1
   177   120   118    1
   178   149   148    2
   179   149   151    1
   180   125   126    1
   181     8     9    1
   182     9    10    1
   183   190   189    2
   184    11    10    2
   185   117   118    1
   186   118   119    1
   187   126   127    1
   188   189   188    1
   189   127   128    1
   190   191   188    1
   191   191   192    1
   192   194   192   ar
   193   194   196   ar
   194   188   187    1
   195   192   193   ar
   196   196   195   ar
   197   193   195   ar
   198    22    20    1
   199    20    21    1
   200    20    17    1
   201    16    17    1
   202   128   129    1
   203    17    18    1
   204   186   184    1
   205    18    19    2
   206   184   183    2
   207   184   185    1
   208   183   182    1
   209   179   178    2
   210   181   182    1
   211   181   180    1
   212   178   177    1
   213   177   180    1
   214   177   176    1
