@<TRIPOS>MOLECULE
tmp/2e84A03.pdb
 171 170 0 0 0
SMALL
GASTEIGER

@<TRIPOS>ATOM
      1  N         52.1800   16.4640   75.8390 N.3   342  PHE342     -0.1241
      2  CA        52.0750   15.6030   77.0150 C.3   342  PHE342      0.1605
      3  C         52.2290   16.3820   78.3240 C.2   342  PHE342      0.2264
      4  O         51.5790   16.0720   79.3230 O.2   342  PHE342     -0.2867
      5  CB        53.1290   14.5030   76.9290 C.3   342  PHE342      0.0534
      6  CG        53.3000   13.7290   78.1890 C.ar  342  PHE342     -0.0203
      7  CD1       52.4050   12.7300   78.5310 C.ar  342  PHE342     -0.0042
      8  CD2       54.3700   13.9960   79.0420 C.ar  342  PHE342     -0.0042
      9  CE1       52.5650   12.0000   79.7110 C.ar  342  PHE342     -0.0003
     10  CE2       54.5430   13.2690   80.2280 C.ar  342  PHE342     -0.0003
     11  CZ        53.6330   12.2650   80.5610 C.ar  342  PHE342     -0.0000
     12  N         51.4450   19.5420   78.5820 N.3   344  LYS344     -0.1245
     13  CA        50.2480   20.3760   78.6450 C.3   344  LYS344      0.1561
     14  C         50.6510   21.8270   78.9050 C.2   344  LYS344      0.2260
     15  O         50.0430   22.5160   79.7250 O.2   344  LYS344     -0.2867
     16  CB        49.3230   19.8730   79.7640 C.3   344  LYS344      0.0271
     17  CG        47.8390   20.0610   79.5070 C.3   344  LYS344      0.0035
     18  CD        47.0600   18.8000   79.8620 C.3   344  LYS344      0.0206
     19  CE        47.3430   17.6740   78.8720 C.3   344  LYS344      0.1093
     20  NZ        46.7330   16.3800   79.2920 N.3   344  LYS344     -0.1314
     21  N         59.1180   13.0570   79.3180 N.3   457  CYS457     -0.1221
     22  CA        58.4390   11.7720   79.4540 C.3   457  CYS457      0.1808
     23  C         58.4010   11.3460   80.9120 C.2   457  CYS457      0.2601
     24  O         57.4050   10.7980   81.3680 O.2   457  CYS457     -0.2717
     25  CB        59.1560   10.6920   78.6510 C.3   457  CYS457      0.0970
     26  SG        59.3650   11.0590   76.8860 S.3   457  CYS457     -0.0800
     27  N         59.4980   11.5810   81.6350 N.am  458  HIS458     -0.1961
     28  CA        59.5440   11.3060   83.0690 C.3   458  HIS458      0.1787
     29  C         59.0540   12.5160   83.8310 C.2   458  HIS458      0.2620
     30  O         59.8450   13.2600   84.4040 O.2   458  HIS458     -0.2715
     31  CB        60.9630   10.9940   83.5180 C.3   458  HIS458      0.0785
     32  CG        61.5440    9.7780   82.8750 C.ar  458  HIS458      0.0821
     33  ND1       61.1600    8.5020   83.2240 N.ar  458  HIS458     -0.2267
     34  CD2       62.4770    9.6410   81.9000 C.ar  458  HIS458      0.1154
     35  CE1       61.8310    7.6310   82.4920 C.ar  458  HIS458      0.1986
     36  NE2       62.6360    8.2960   81.6810 N.ar  458  HIS458     -0.2212
     37  N         57.7440   12.7090   83.8420 N.am  459  HIS459     -0.1959
     38  CA        57.1750   13.8970   84.4430 C.3   459  HIS459      0.1787
     39  C         56.8880   13.6580   85.9130 C.2   459  HIS459      0.2620
     40  O         56.9280   12.5260   86.3710 O.2   459  HIS459     -0.2715
     41  CB        55.8900   14.2750   83.7120 C.3   459  HIS459      0.0785
     42  CG        54.7770   13.2910   83.8950 C.ar  459  HIS459      0.0821
     43  ND1       53.4660   13.5880   83.5900 N.ar  459  HIS459     -0.2267
     44  CD2       54.7810   12.0060   84.3210 C.ar  459  HIS459      0.1154
     45  CE1       52.7120   12.5280   83.8170 C.ar  459  HIS459      0.1986
     46  NE2       53.4850   11.5550   84.2600 N.ar  459  HIS459     -0.2212
     47  N         56.6050   14.7310   86.6460 N.am  460  ASN460     -0.1958
     48  CA        56.1100   14.6410   88.0260 C.3   460  ASN460      0.1819
     49  C         57.0900   14.0880   89.0580 C.2   460  ASN460      0.2622
     50  O         56.7600   14.0100   90.2380 O.2   460  ASN460     -0.2715
     51  CB        54.8200   13.8190   88.0860 C.3   460  ASN460      0.1195
     52  CG        53.6560   14.5320   87.4470 C.2   460  ASN460      0.2630
     53  OD1       53.6260   15.7620   87.3790 O.2   460  ASN460     -0.2716
     54  ND2       52.6860   13.7650   86.9700 N.am  460  ASN460     -0.0877
     55  N         58.2830   13.7000   88.6260 N.am  461  SER461     -0.1950
     56  CA        59.3220   13.3080   89.5660 C.3   461  SER461      0.1924
     57  C         60.4290   14.3540   89.5580 C.2   461  SER461      0.2314
     58  O         60.5170   15.1720   88.6400 O.2   461  SER461     -0.2863
     59  CB        59.8870   11.9290   89.1980 C.3   461  SER461      0.2116
     60  OG        59.9630   11.7540   87.7910 O.3   461  SER461     -0.2180
     61  N         62.1150    7.3840   88.2480 N.3   468  PRO468     -0.2102
     62  CA        61.4050    6.2190   88.7740 C.3   468  PRO468      0.1504
     63  C         60.6690    5.4670   87.6620 C.2   468  PRO468      0.2576
     64  O         60.6030    5.9330   86.5260 O.2   468  PRO468     -0.2718
     65  CB        60.4500    6.8190   89.8040 C.3   468  PRO468      0.0282
     66  CG        60.2110    8.1940   89.3180 C.3   468  PRO468      0.0208
     67  CD        61.4790    8.6460   88.6600 C.3   468  PRO468      0.0893
     68  N         60.1260    4.3020   87.9940 N.am  469  LYS469     -0.1966
     69  CA        59.3630    3.5170   87.0400 C.3   469  LYS469      0.1728
     70  C         58.0440    4.2210   86.7610 C.2   469  LYS469      0.2616
     71  O         57.5660    4.9940   87.5880 O.2   469  LYS469     -0.2715
     72  CB        59.0810    2.1290   87.6110 C.3   469  LYS469      0.0311
     73  CG        59.8170    1.0020   86.9180 C.3   469  LYS469      0.0038
     74  CD        61.2810    0.9510   87.3140 C.3   469  LYS469      0.0206
     75  CE        61.9010   -0.4120   86.9790 C.3   469  LYS469      0.1093
     76  NZ        61.2440   -1.5390   87.7080 N.3   469  LYS469     -0.1314
     77  N         57.4480    3.9550   85.6030 N.am  470  CYS470     -0.1968
     78  CA        56.0910    4.4330   85.3630 C.3   470  CYS470      0.1712
     79  C         55.1680    3.7710   86.3810 C.2   470  CYS470      0.2296
     80  O         54.3570    4.4420   87.0170 O.2   470  CYS470     -0.2864
     81  CB        55.6240    4.0920   83.9420 C.3   470  CYS470      0.0983
     82  SG        56.5830    4.8840   82.6110 S.3   470  CYS470     -0.0798
     83  N         55.5310    3.1850   89.1540 N.3   472  SER472     -0.1202
     84  CA        55.6050    3.9000   90.4300 C.3   472  SER472      0.2020
     85  C         54.2330    4.4550   90.7770 C.2   472  SER472      0.2619
     86  O         53.6280    4.0710   91.7710 O.2   472  SER472     -0.2717
     87  CB        56.5960    5.0670   90.3540 C.3   472  SER472      0.2103
     88  OG        57.9110    4.6170   90.1170 O.3   472  SER472     -0.2182
     89  N         53.7420    5.3580   89.9420 N.am  473  CYS473     -0.1955
     90  CA        52.5240    6.0700   90.2510 C.3   473  CYS473      0.1843
     91  C         51.3460    5.5880   89.3950 C.2   473  CYS473      0.2625
     92  O         50.2430    6.1060   89.5170 O.2   473  CYS473     -0.2714
     93  CB        52.7440    7.5730   90.0530 C.3   473  CYS473      0.0997
     94  SG        54.3920    8.2170   90.5350 S.3   473  CYS473     -0.0797
     95  N         51.5670    4.5990   88.5310 N.am  474  HIS474     -0.1973
     96  CA        50.4980    4.1300   87.6440 C.3   474  HIS474      0.1656
     97  C         50.0610    2.6840   87.8780 C.2   474  HIS474      0.2291
     98  O         50.8710    1.7610   87.8110 O.2   474  HIS474     -0.2864
     99  CB        50.9080    4.3090   86.1820 C.3   474  HIS474      0.0771
    100  CG        50.9590    5.7380   85.7500 C.ar  474  HIS474      0.0820
    101  ND1       49.8580    6.4000   85.2490 N.ar  474  HIS474     -0.2267
    102  CD2       51.9590    6.6490   85.7900 C.ar  474  HIS474      0.1154
    103  CE1       50.1770    7.6590   85.0050 C.ar  474  HIS474      0.1986
    104  NE2       51.4450    7.8360   85.3250 N.ar  474  HIS474     -0.2212
    105  N         47.1430   10.1320   89.9100 N.3   477  ASP477     -0.1225
    106  CA        47.8730    9.0010   89.2590 C.3   477  ASP477      0.1805
    107  C         46.9640    8.2870   88.2570 C.2   477  ASP477      0.2598
    108  O         46.9360    7.0570   88.1980 O.2   477  ASP477     -0.2718
    109  CB        48.3400    8.0070   90.3250 C.3   477  ASP477      0.1424
    110  CG        49.1830    8.6590   91.3990 C.2   477  ASP477      0.3668
    111  OD1       49.6810    7.9400   92.2940 O.co2 477  ASP477     -0.2456
    112  OD2       49.3490    9.8950   91.3510 O.co2 477  ASP477     -0.2456
    113  N         46.2380    9.0680   87.4600 N.am  478  ARG478     -0.1966
    114  CA        44.9790    8.6130   86.8870 C.3   478  ARG478      0.1714
    115  C         45.0640    7.4300   85.9190 C.2   478  ARG478      0.2458
    116  O         44.5940    6.3400   86.2420 O.2   478  ARG478     -0.2730
    117  CB        44.2530    9.7870   86.2200 C.3   478  ARG478      0.0347
    118  CG        43.8120   10.8840   87.1860 C.3   478  ARG478      0.0492
    119  CD        42.6880   10.4180   88.1160 C.3   478  ARG478      0.2205
    120  NE        43.1900    9.7680   89.3290 N.pl3 478  ARG478     -0.0865
    121  CZ        43.4580   10.4010   90.4700 C.cat 478  ARG478      0.5346
    122  NH1       43.2760   11.7140   90.5710 N.pl3 478  ARG478      0.1354
    123  NH2       43.9080    9.7200   91.5150 N.pl3 478  ARG478      0.1354
    124  N         45.6690    7.6110   84.7300 N.am  479  PRO479     -0.2727
    125  CA        45.7250    6.4570   83.8240 C.3   479  PRO479      0.1402
    126  C         46.4820    5.2720   84.4090 C.2   479  PRO479      0.2269
    127  O         47.3960    5.4460   85.2180 O.2   479  PRO479     -0.2865
    128  CB        46.4010    7.0110   82.5750 C.3   479  PRO479      0.0296
    129  CG        47.2170    8.1360   83.0720 C.3   479  PRO479      0.0237
    130  CD        46.4570    8.7450   84.2160 C.3   479  PRO479      0.0939
    131  N         48.8620    4.5340   80.3790 N.3   484  ALA484     -0.1231
    132  CA        49.9270    5.5040   80.5330 C.3   484  ALA484      0.1694
    133  C         50.9270    5.3210   79.3900 C.2   484  ALA484      0.2592
    134  O         51.3140    6.2860   78.7340 O.2   484  ALA484     -0.2718
    135  CB        50.6060    5.3160   81.8820 C.3   484  ALA484      0.0304
    136  N         51.3280    4.0770   79.1400 N.am  485  TYR485     -0.1976
    137  CA        52.2440    3.7890   78.0430 C.3   485  TYR485      0.1639
    138  C         51.6060    4.1830   76.7300 C.2   485  TYR485      0.2290
    139  O         52.1550    4.9800   75.9760 O.2   485  TYR485     -0.2864
    140  CB        52.6040    2.3030   78.0000 C.3   485  TYR485      0.0560
    141  CG        53.6060    1.8870   79.0500 C.ar  485  TYR485     -0.0198
    142  CD1       53.3830    0.7580   79.8410 C.ar  485  TYR485     -0.0009
    143  CD2       54.7740    2.6230   79.2630 C.ar  485  TYR485     -0.0009
    144  CE1       54.2930    0.3680   80.8190 C.ar  485  TYR485      0.0417
    145  CE2       55.6990    2.2420   80.2460 C.ar  485  TYR485      0.0417
    146  CZ        55.4470    1.1130   81.0180 C.ar  485  TYR485      0.1957
    147  OH        56.3310    0.7330   81.9970 O.3   485  TYR485     -0.2866
    148  N         49.1100    6.0890   76.0220 N.3   487  GLN487     -0.1231
    149  CA        48.8580    7.5040   75.8550 C.3   487  GLN487      0.1698
    150  C         50.1320    8.2840   75.5910 C.2   487  GLN487      0.2592
    151  O         50.1560    9.1510   74.7160 O.2   487  GLN487     -0.2718
    152  CB        48.1210    8.0600   77.0660 C.3   487  GLN487      0.0381
    153  CG        46.6090    7.8990   76.9470 C.3   487  GLN487      0.0905
    154  CD        45.8920    8.0460   78.2670 C.2   487  GLN487      0.2608
    155  OE1       45.0990    7.1830   78.6520 O.2   487  GLN487     -0.2717
    156  NE2       46.1650    9.1380   78.9740 N.am  487  GLN487     -0.0878
    157  N         51.2030    7.9710   76.3100 N.am  488  GLN488     -0.1966
    158  CA        52.4360    8.7210   76.1130 C.3   488  GLN488      0.1733
    159  C         53.1590    8.3400   74.8190 C.2   488  GLN488      0.2616
    160  O         53.6120    9.2110   74.0820 O.2   488  GLN488     -0.2715
    161  CB        53.3820    8.5440   77.3000 C.3   488  GLN488      0.0408
    162  CG        54.5360    9.5380   77.2650 C.3   488  GLN488      0.0908
    163  CD        55.6520    9.1930   78.2190 C.2   488  GLN488      0.2608
    164  OE1       56.4520    8.2940   77.9610 O.2   488  GLN488     -0.2717
    165  NE2       55.7160    9.9080   79.3320 N.am  488  GLN488     -0.0878
    166  N         53.2540    7.0470   74.5390 N.am  489  CYS489     -0.1968
    167  CA        53.9990    6.5770   73.3770 C.3   489  CYS489      0.1712
    168  C         53.3070    6.9160   72.0600 C.2   489  CYS489      0.2296
    169  O         53.9050    7.5280   71.1780 O.2   489  CYS489     -0.2864
    170  CB        54.2030    5.0620   73.4360 C.3   489  CYS489      0.0983
    171  SG        54.7850    4.4000   75.0150 S.3   489  CYS489     -0.0798
@<TRIPOS>BOND
     1   169   168    2
     2   168   167    1
     3   167   170    1
     4   167   166    1
     5   170   171    1
     6   160   159    2
     7   166   159   am
     8   151   150    2
     9   159   158    1
    10   150   149    1
    11   150   157   am
    12     1     2    1
    13   149   148    1
    14   149   152    1
    15   139   138    2
    16   158   157    1
    17   158   161    1
    18   138   137    1
    19    26    25    1
    20     5     2    1
    21     5     6    1
    22   153   152    1
    23   153   154    1
    24     2     3    1
    25   162   161    1
    26   162   163    1
    27   164   163    2
    28   140   137    1
    29   140   141    1
    30   137   136    1
    31     6     7   ar
    32     6     8   ar
    33   163   165   am
    34   154   155    2
    35   154   156   am
    36     3     4    2
    37     7     9   ar
    38    12    13    1
    39    13    14    1
    40    13    16    1
    41    25    22    1
    42   134   133    2
    43    19    20    1
    44    19    18    1
    45    14    15    2
    46     8    10   ar
    47   141   143   ar
    48   141   142   ar
    49   136   133   am
    50   143   145   ar
    51    21    22    1
    52   133   132    1
    53    22    23    1
    54    17    16    1
    55    17    18    1
    56     9    11   ar
    57   142   144   ar
    58    10    11   ar
    59   145   146   ar
    60   131   132    1
    61   132   135    1
    62   144   146   ar
    63    23    24    2
    64    23    27   am
    65   146   147    1
    66    27    28    1
    67    36    34   ar
    68    36    35   ar
    69    34    32   ar
    70    35    33   ar
    71   128   129    1
    72   128   125    1
    73    82    81    1
    74    32    33   ar
    75    32    31    1
    76    28    31    1
    77    28    29    1
    78   129   130    1
    79    43    45   ar
    80    43    42   ar
    81    41    42    1
    82    41    38    1
    83    45    46   ar
    84   125   126    1
    85   125   124    1
    86    29    37   am
    87    29    30    2
    88    37    38    1
    89    42    44   ar
    90    81    78    1
    91   130   124    1
    92    46    44   ar
    93   126   127    2
    94    38    39    1
    95   124   115   am
    96   103   101   ar
    97   103   104   ar
    98   101   100   ar
    99   104   102   ar
   100    78    77    1
   101    78    79    1
   102    77    70   am
   103   100   102   ar
   104   100    99    1
   105    39    40    2
   106    39    47   am
   107   115   116    2
   108   115   114    1
   109    99    96    1
   110   117   114    1
   111   117   118    1
   112    79    80    2
   113    64    63    2
   114    47    48    1
   115    70    69    1
   116    70    71    2
   117   114   113    1
   118    73    74    1
   119    73    72    1
   120    54    52   am
   121    75    74    1
   122    75    76    1
   123    69    72    1
   124    69    68    1
   125   118   119    1
   126    53    52    2
   127    52    51    1
   128   113   107   am
   129    96    97    1
   130    96    95    1
   131    63    68   am
   132    63    62    1
   133    60    59    1
   134    98    97    2
   135    48    51    1
   136    48    49    1
   137   119   120    1
   138   108   107    2
   139    61    67    1
   140    61    62    1
   141   107   106    1
   142    95    91   am
   143    55    49   am
   144    55    56    1
   145    58    57    2
   146    67    66    1
   147    62    65    1
   148    49    50    2
   149    83    84    1
   150    59    56    1
   151   106   105    1
   152   106   109    1
   153    66    65    1
   154   120   121    2
   155    91    92    2
   156    91    90    1
   157    57    56    1
   158    89    90    1
   159    89    85   am
   160    93    90    1
   161    93    94    1
   162    88    87    1
   163   109   110    1
   164    87    84    1
   165    84    85    1
   166   121   122    1
   167   121   123    1
   168    85    86    2
   169   112   110   ar
   170   110   111   ar
