@<TRIPOS>MOLECULE
tmp/2e84A12.pdb
 177 172 0 0 0
SMALL
GASTEIGER

@<TRIPOS>ATOM
      1  N         37.0340   38.4940   41.4890 N.3    12  ALA12      -0.1231
      2  CA        37.5200   39.3580   42.5580 C.3    12  ALA12       0.1694
      3  C         37.1800   40.7870   42.1880 C.2    12  ALA12       0.2592
      4  O         37.8290   41.7270   42.6300 O.2    12  ALA12      -0.2718
      5  CB        39.0230   39.2020   42.7140 C.3    12  ALA12       0.0304
      6  N         36.1370   40.9240   41.3800 N.am   13  ASP13      -0.1960
      7  CA        35.9130   42.0930   40.5330 C.3    13  ASP13       0.1840
      8  C         34.6930   42.8780   41.0150 C.2    13  ASP13       0.2622
      9  O         34.4340   43.9940   40.5720 O.2    13  ASP13      -0.2715
     10  CB        35.6640   41.6200   39.0970 C.3    13  ASP13       0.1450
     11  CG        35.7050   42.7470   38.1010 C.2    13  ASP13       0.3671
     12  OD1       36.1520   43.8420   38.4920 O.co2  13  ASP13      -0.2456
     13  OD2       35.3010   42.5400   36.9340 O.co2  13  ASP13      -0.2456
     14  N         33.9360   42.2700   41.9180 N.am   14  LEU14      -0.1963
     15  CA        32.5490   42.6470   42.1150 C.3    14  LEU14       0.1728
     16  C         32.4060   43.7850   43.1120 C.2    14  LEU14       0.2616
     17  O         32.8850   43.7180   44.2400 O.2    14  LEU14      -0.2715
     18  CB        31.7500   41.4190   42.5610 C.3    14  LEU14       0.0311
     19  CG        32.0990   40.1470   41.7620 C.3    14  LEU14       0.0022
     20  CD1       31.3280   38.9450   42.2960 C.3    14  LEU14       0.0001
     21  CD2       31.7880   40.3680   40.2860 C.3    14  LEU14       0.0001
     22  N         31.7600   44.8510   42.6660 N.am   15  VAL15      -0.1977
     23  CA        31.4150   45.9580   43.5350 C.3    15  VAL15       0.1596
     24  C         29.9290   45.8580   43.8690 C.2    15  VAL15       0.2287
     25  O         29.0840   45.7770   42.9710 O.2    15  VAL15      -0.2864
     26  CB        31.7080   47.3010   42.8420 C.3    15  VAL15       0.0276
     27  CG1       31.2430   48.4520   43.7140 C.3    15  VAL15       0.0022
     28  CG2       33.1970   47.4170   42.5570 C.3    15  VAL15       0.0022
     29  N         33.8180   45.5210   38.0790 N.3    35  HIS35      -0.1241
     30  CA        34.6770   46.6550   37.7840 C.3    35  HIS35       0.1621
     31  C         35.7130   46.4030   36.6750 C.2    35  HIS35       0.2264
     32  O         35.8550   47.2160   35.7560 O.2    35  HIS35      -0.2867
     33  CB        35.3870   47.0960   39.0690 C.3    35  HIS35       0.0745
     34  CG        36.1200   48.3920   38.9350 C.ar   35  HIS35       0.0817
     35  ND1       37.3080   48.5040   38.2450 N.ar   35  HIS35      -0.2268
     36  CD2       35.8130   49.6380   39.3650 C.ar   35  HIS35       0.1154
     37  CE1       37.6990   49.7650   38.2510 C.ar   35  HIS35       0.1986
     38  NE2       36.8100   50.4740   38.9220 N.ar   35  HIS35      -0.2212
     39  N         37.3350   37.1280   45.7590 N.3   121  TRP121     -0.1241
     40  CA        38.0990   38.2540   46.2760 C.3   121  TRP121      0.1605
     41  C         38.9850   37.8310   47.4500 C.2   121  TRP121      0.2264
     42  O         38.6410   36.9240   48.2090 O.2   121  TRP121     -0.2867
     43  CB        37.1300   39.3600   46.7070 C.3   121  TRP121      0.0550
     44  CG        37.7870   40.6090   47.1680 C.ar  121  TRP121      0.0003
     45  CD1       38.0250   41.7280   46.4310 C.ar  121  TRP121      0.0946
     46  CD2       38.2590   40.8910   48.4880 C.ar  121  TRP121      0.0152
     47  NE1       38.6140   42.6940   47.2080 N.ar  121  TRP121     -0.2442
     48  CE2       38.7680   42.2050   48.4780 C.ar  121  TRP121      0.0810
     49  CE3       38.3010   40.1590   49.6820 C.ar  121  TRP121      0.0012
     50  CZ2       39.3100   42.8050   49.6150 C.ar  121  TRP121      0.0191
     51  CZ3       38.8420   40.7550   50.8110 C.ar  121  TRP121      0.0001
     52  CH2       39.3390   42.0650   50.7690 C.ar  121  TRP121      0.0015
     53  N         42.0360   39.5620   50.3980 N.3   123  GLN123     -0.1231
     54  CA        42.7430   40.6930   50.9790 C.3   123  GLN123      0.1698
     55  C         44.2020   40.6890   50.5280 C.2   123  GLN123      0.2592
     56  O         44.7480   39.6400   50.1870 O.2   123  GLN123     -0.2718
     57  CB        42.6600   40.6030   52.5050 C.3   123  GLN123      0.0381
     58  CG        43.1510   41.8260   53.2470 C.3   123  GLN123      0.0905
     59  CD        42.3180   42.1260   54.4840 C.2   123  GLN123      0.2608
     60  OE1       42.7970   42.0100   55.6150 O.2   123  GLN123     -0.2717
     61  NE2       41.0630   42.5210   54.2730 N.am  123  GLN123     -0.0878
     62  N         44.8260   41.8640   50.5240 N.am  124  ILE124     -0.1966
     63  CA        46.2520   41.9740   50.2300 C.3   124  ILE124      0.1727
     64  C         46.9040   43.0040   51.1560 C.2   124  ILE124      0.2616
     65  O         46.2510   43.9670   51.5740 O.2   124  ILE124     -0.2715
     66  CB        46.4900   42.4230   48.7630 C.3   124  ILE124      0.0290
     67  CG1       47.9800   42.2990   48.4140 C.3   124  ILE124      0.0022
     68  CG2       46.0220   43.8850   48.5770 C.3   124  ILE124      0.0023
     69  CD1       48.3680   42.9080   47.0640 C.3   124  ILE124      0.0001
     70  N         48.1860   42.7930   51.4620 N.am  125  GLY125     -0.1955
     71  CA        48.9920   43.7740   52.1810 C.3   125  GLY125      0.1869
     72  C         50.4570   43.6330   51.7870 C.2   125  GLY125      0.2309
     73  O         50.7850   42.8270   50.9170 O.2   125  GLY125     -0.2863
     74  N         47.2870   50.6810   59.4980 N.3   175  ARG175     -0.1245
     75  CA        46.1870   50.3150   60.3940 C.3   175  ARG175      0.1563
     76  C         46.2290   51.0170   61.7430 C.2   175  ARG175      0.2260
     77  O         45.1960   51.1700   62.3960 O.2   175  ARG175     -0.2867
     78  CB        46.1670   48.8050   60.6380 C.3   175  ARG175      0.0307
     79  CG        45.6500   47.9930   59.4790 C.3   175  ARG175      0.0489
     80  CD        45.6610   46.5190   59.8270 C.3   175  ARG175      0.2205
     81  NE        45.9050   45.7000   58.6460 N.pl3 175  ARG175     -0.0865
     82  CZ        44.9480   45.2630   57.8380 C.cat 175  ARG175      0.5346
     83  NH1       43.6790   45.5680   58.0850 N.pl3 175  ARG175      0.1354
     84  NH2       45.2620   44.5190   56.7870 N.pl3 175  ARG175      0.1354
     85  N         41.0460   52.6480   56.0380 N.3   189  LEU189     -0.1231
     86  CA        42.1300   51.9180   55.4070 C.3   189  LEU189      0.1693
     87  C         41.7930   51.6340   53.9350 C.2   189  LEU189      0.2591
     88  O         42.6440   51.7730   53.0560 O.2   189  LEU189     -0.2718
     89  CB        42.3740   50.6110   56.1630 C.3   189  LEU189      0.0284
     90  CG        43.5350   49.7440   55.6720 C.3   189  LEU189      0.0019
     91  CD1       44.8470   50.5060   55.7250 C.3   189  LEU189      0.0001
     92  CD2       43.6100   48.5180   56.5400 C.3   189  LEU189      0.0001
     93  N         40.5420   51.2500   53.6840 N.am  190  ARG190     -0.1980
     94  CA        40.0490   50.9380   52.3370 C.3   190  ARG190      0.1597
     95  C         40.3300   52.0630   51.3420 C.2   190  ARG190      0.2287
     96  O         40.9730   51.8560   50.3150 O.2   190  ARG190     -0.2864
     97  CB        38.5400   50.6640   52.4020 C.3   190  ARG190      0.0334
     98  CG        37.8570   50.3170   51.0890 C.3   190  ARG190      0.0492
     99  CD        36.4230   49.8360   51.3570 C.3   190  ARG190      0.2205
    100  NE        35.6600   49.5350   50.1410 N.pl3 190  ARG190     -0.0865
    101  CZ        34.4510   48.9670   50.1220 C.cat 190  ARG190      0.5346
    102  NH1       33.8420   48.6270   51.2520 N.pl3 190  ARG190      0.1354
    103  NH2       33.8520   48.7130   48.9660 N.pl3 190  ARG190      0.1354
    104  N         44.3900   53.0540   51.2760 N.3   193  ALA193     -0.1231
    105  CA        45.0750   52.1860   50.3260 C.3   193  ALA193      0.1694
    106  C         44.7220   52.5260   48.8770 C.2   193  ALA193      0.2592
    107  O         45.6040   52.8480   48.0770 O.2   193  ALA193     -0.2718
    108  CB        44.7280   50.7380   50.6120 C.3   193  ALA193      0.0304
    109  N         43.4370   52.4610   48.5400 N.am  194  HIS194     -0.1976
    110  CA        43.0230   52.6480   47.1530 C.3   194  HIS194      0.1656
    111  C         43.5410   53.9450   46.5640 C.2   194  HIS194      0.2291
    112  O         43.8310   54.0220   45.3660 O.2   194  HIS194     -0.2864
    113  CB        41.5030   52.6020   47.0350 C.3   194  HIS194      0.0771
    114  CG        40.9390   51.2280   47.1860 C.ar  194  HIS194      0.0820
    115  ND1       39.6120   50.9960   47.4730 N.ar  194  HIS194     -0.2267
    116  CD2       41.5280   50.0110   47.1090 C.ar  194  HIS194      0.1154
    117  CE1       39.4060   49.6950   47.5660 C.ar  194  HIS194      0.1986
    118  NE2       40.5520   49.0750   47.3490 N.ar  194  HIS194     -0.2212
    119  N         48.0670   53.6840   46.9410 N.3   197  CYS197     -0.1221
    120  CA        48.5850   52.5370   46.2180 C.3   197  CYS197      0.1808
    121  C         48.3350   52.6270   44.7210 C.2   197  CYS197      0.2601
    122  O         49.2770   52.5480   43.9300 O.2   197  CYS197     -0.2717
    123  CB        47.9500   51.2590   46.7580 C.3   197  CYS197      0.0970
    124  SG        47.9660   51.1550   48.5720 S.3   197  CYS197     -0.0800
    125  N         47.0700   52.7920   44.3340 N.am  198  ILE198     -0.1979
    126  CA        46.7020   52.7650   42.9220 C.3   198  ILE198      0.1595
    127  C         47.1930   54.0120   42.2020 C.2   198  ILE198      0.2287
    128  O         47.4920   53.9680   41.0160 O.2   198  ILE198     -0.2864
    129  CB        45.1680   52.6590   42.7160 C.3   198  ILE198      0.0276
    130  CG1       44.6180   51.4380   43.4520 C.3   198  ILE198      0.0022
    131  CG2       44.8470   52.5210   41.2240 C.3   198  ILE198      0.0022
    132  CD1       43.1270   51.2470   43.2770 C.3   198  ILE198      0.0001
    133  N         50.9800   53.3890   41.5000 N.3   201  HIS201     -0.1241
    134  CA        51.1970   52.3660   40.4980 C.3   201  HIS201      0.1621
    135  C         50.9750   52.9650   39.1320 C.2   201  HIS201      0.2264
    136  O         51.7150   52.6750   38.1890 O.2   201  HIS201     -0.2867
    137  CB        50.2420   51.1990   40.6960 C.3   201  HIS201      0.0745
    138  CG        50.6090   50.3120   41.8390 C.ar  201  HIS201      0.0817
    139  ND1       49.7840   49.3070   42.2930 N.ar  201  HIS201     -0.2268
    140  CD2       51.7100   50.2790   42.6240 C.ar  201  HIS201      0.1154
    141  CE1       50.3600   48.6930   43.3100 C.ar  201  HIS201      0.1986
    142  NE2       51.5300   49.2630   43.5310 N.ar  201  HIS201     -0.2212
    143  N         46.7830   47.5500   39.1040 N.3   216  VAL216     -0.1231
    144  CA        45.7570   48.5880   39.1630 C.3   216  VAL216      0.1692
    145  C         44.3430   48.0200   39.0820 C.2   216  VAL216      0.2593
    146  O         43.4180   48.5520   39.6960 O.2   216  VAL216     -0.2718
    147  CB        45.9530   49.6110   38.0290 C.3   216  VAL216      0.0266
    148  CG1       44.7900   50.6030   38.0050 C.3   216  VAL216      0.0020
    149  CG2       47.2870   50.3390   38.2290 C.3   216  VAL216      0.0020
    150  N         44.1680   46.9410   38.3300 N.am  217  SER217     -0.1938
    151  CA        42.8490   46.3200   38.2250 C.3   217  SER217      0.2055
    152  C         42.5010   45.6280   39.5370 C.2   217  SER217      0.2643
    153  O         43.3900   45.2510   40.3060 O.2   217  SER217     -0.2714
    154  CB        42.8330   45.2870   37.0980 C.3   217  SER217      0.2130
    155  OG        43.6270   44.1640   37.4430 O.3   217  SER217     -0.2179
    156  N         41.2100   45.4410   39.7870 N.am  218  CYS218     -0.1967
    157  CA        40.7850   44.7970   41.0200 C.3   218  CYS218      0.1712
    158  C         41.4540   43.4370   41.2330 C.2   218  CYS218      0.2296
    159  O         41.9770   43.1530   42.3120 O.2   218  CYS218     -0.2864
    160  CB        39.2680   44.6370   41.0250 C.3   218  CYS218      0.0983
    161  SG        38.3540   46.1300   40.5200 S.3   218  CYS218     -0.0798
    162  N         45.4230   42.8970   42.3840 N.3   221  CYS221     -0.1221
    163  CA        45.7910   42.8860   43.8000 C.3   221  CYS221      0.1808
    164  C         44.9840   41.8190   44.5430 C.2   221  CYS221      0.2601
    165  O         45.4830   41.1990   45.4740 O.2   221  CYS221     -0.2717
    166  CB        45.5240   44.2550   44.4590 C.3   221  CYS221      0.0970
    167  SG        46.7250   45.6260   44.2270 S.3   221  CYS221     -0.0800
    168  N         43.7370   41.6030   44.1270 N.am  222  HIS222     -0.1975
    169  CA        42.7790   40.8440   44.9400 C.3   222  HIS222      0.1656
    170  C         42.4370   39.4340   44.4940 C.2   222  HIS222      0.2291
    171  O         41.7970   38.6960   45.2400 O.2   222  HIS222     -0.2864
    172  CB        41.4690   41.6180   45.0870 C.3   222  HIS222      0.0771
    173  CG        41.5660   42.7930   46.0030 C.ar  222  HIS222      0.0820
    174  ND1       41.9390   42.6780   47.3240 N.ar  222  HIS222     -0.2267
    175  CD2       41.3350   44.1090   45.7900 C.ar  222  HIS222      0.1154
    176  CE1       41.9320   43.8740   47.8850 C.ar  222  HIS222      0.1986
    177  NE2       41.5690   44.7590   46.9750 N.ar  222  HIS222     -0.2212
@<TRIPOS>BOND
     1    32    31    2
     2    31    30    1
     3    13    11   ar
     4   154   155    1
     5   154   151    1
     6    30    29    1
     7    30    33    1
     8   148   147    1
     9   147   149    1
    10   147   144    1
    11    11    12   ar
    12    11    10    1
    13   136   135    2
    14   151   150    1
    15   151   152    1
    16    35    37   ar
    17    35    34   ar
    18    37    38   ar
    19   150   145   am
    20    38    36   ar
    21    34    33    1
    22    34    36   ar
    23   145   144    1
    24   145   146    2
    25    10     7    1
    26   143   144    1
    27   135   134    1
    28   152   156   am
    29   152   153    2
    30   156   157    1
    31    21    19    1
    32   134   137    1
    33   134   133    1
    34   161   160    1
    35     7     8    1
    36     7     6    1
    37     9     8    2
    38   137   138    1
    39     8    14   am
    40   128   127    2
    41   157   160    1
    42   157   158    1
    43   131   129    1
    44   158   159    2
    45     6     3   am
    46     1     2    1
    47    19    20    1
    48    19    18    1
    49   138   139   ar
    50   138   140   ar
    51    14    15    1
    52    15    18    1
    53    15    16    1
    54     3     2    1
    55     3     4    2
    56   127   126    1
    57   139   141   ar
    58   162   163    1
    59    28    26    1
    60     2     5    1
    61   140   142   ar
    62    22    16   am
    63    22    23    1
    64   129   126    1
    65   129   130    1
    66    26    23    1
    67    26    27    1
    68   126   125    1
    69    25    24    2
    70    16    17    2
    71   132   130    1
    72   141   142   ar
    73    23    24    1
    74   163   166    1
    75   163   164    1
    76   122   121    2
    77   168   164   am
    78   168   169    1
    79   167   166    1
    80   125   121   am
    81   170   169    1
    82   170   171    2
    83   164   165    2
    84   121   120    1
    85   169   172    1
    86   172   173    1
    87   112   111    2
    88    39    40    1
    89   175   173   ar
    90   175   177   ar
    91   173   174   ar
    92   120   123    1
    93   120   119    1
    94    40    43    1
    95    40    41    1
    96    45    44   ar
    97    45    47   ar
    98   111   110    1
    99    43    44    1
   100   123   124    1
   101   177   176   ar
   102   113   110    1
   103   113   114    1
   104    69    67    1
   105   116   114   ar
   106   116   118   ar
   107   110   109    1
   108    44    46   ar
   109   114   115   ar
   110    47    48   ar
   111   174   176   ar
   112   118   117   ar
   113    41    42    2
   114   115   117   ar
   115   107   106    2
   116    67    66    1
   117    48    46   ar
   118    48    50   ar
   119    46    49   ar
   120   109   106   am
   121    68    66    1
   122    66    63    1
   123   106   105    1
   124   103   101    1
   125    50    52   ar
   126    49    51   ar
   127   101   100    2
   128   101   102    1
   129   100    99    1
   130    56    55    2
   131    63    62    1
   132    63    64    1
   133    96    95    2
   134   105   108    1
   135   105   104    1
   136    53    54    1
   137    62    55   am
   138    55    54    1
   139    52    51   ar
   140    73    72    2
   141    54    57    1
   142    98    99    1
   143    98    97    1
   144    64    70   am
   145    64    65    2
   146    95    94    1
   147    70    71    1
   148    72    71    1
   149    94    97    1
   150    94    93    1
   151    57    58    1
   152    88    87    2
   153    58    59    1
   154    93    87   am
   155    87    86    1
   156    61    59   am
   157    59    60    2
   158    86    85    1
   159    86    89    1
   160    90    91    1
   161    90    89    1
   162    90    92    1
   163    84    82    1
   164    82    83    1
   165    82    81    2
   166    81    80    1
   167    79    80    1
   168    79    78    1
   169    74    75    1
   170    75    78    1
   171    75    76    1
   172    76    77    2
