@<TRIPOS>MOLECULE
tmp/2e87A00.pdb
 124 120 0 0 0
SMALL
GASTEIGER

@<TRIPOS>ATOM
      1  N         31.0260   59.1110   31.9510 N.3   173  PRO173     -0.2102
      2  CA        31.2640   60.1480   30.9550 C.3   173  PRO173      0.1504
      3  C         32.3920   61.0360   31.4350 C.2   173  PRO173      0.2576
      4  O         32.5510   61.2530   32.6390 O.2   173  PRO173     -0.2718
      5  CB        29.9290   60.8920   30.9100 C.3   173  PRO173      0.0282
      6  CG        28.9260   59.8280   31.3600 C.3   173  PRO173      0.0208
      7  CD        29.6640   59.2050   32.4980 C.3   173  PRO173      0.0893
      8  N         33.1810   61.5280   30.4900 N.am  174  ASN174     -0.1961
      9  CA        34.2910   62.4220   30.7690 C.3   174  ASN174      0.1819
     10  C         35.4670   61.8160   31.5100 C.2   174  ASN174      0.2621
     11  O         36.2720   62.5650   32.0700 O.2   174  ASN174     -0.2715
     12  CB        33.8260   63.6510   31.5640 C.3   174  ASN174      0.1195
     13  CG        32.5670   64.2740   31.0110 C.2   174  ASN174      0.2630
     14  OD1       32.4980   64.6290   29.8370 O.2   174  ASN174     -0.2716
     15  ND2       31.5590   64.4130   31.8630 N.am  174  ASN174     -0.0877
     16  N         35.5960   60.4930   31.5480 N.am  175  VAL175     -0.1963
     17  CA        36.7500   59.9420   32.2540 C.3   175  VAL175      0.1727
     18  C         37.9690   59.8140   31.3400 C.2   175  VAL175      0.2617
     19  O         39.0570   59.5170   31.8040 O.2   175  VAL175     -0.2715
     20  CB        36.4590   58.5570   32.8830 C.3   175  VAL175      0.0290
     21  CG1       35.3530   58.6660   33.9040 C.3   175  VAL175      0.0023
     22  CG2       36.1130   57.5520   31.7940 C.3   175  VAL175      0.0023
     23  N         37.7770   60.0290   30.0440 N.am  176  GLY176     -0.1940
     24  CA        38.8820   59.9410   29.1030 C.3   176  GLY176      0.2014
     25  C         38.8410   58.7960   28.1040 C.2   176  GLY176      0.2639
     26  O         39.8520   58.4840   27.4720 O.2   176  GLY176     -0.2714
     27  N         37.6820   58.1730   27.9500 N.am  177  LYS177     -0.1963
     28  CA        37.5350   57.0620   27.0270 C.3   177  LYS177      0.1728
     29  C         37.9970   57.3870   25.6050 C.2   177  LYS177      0.2617
     30  O         38.8740   56.7070   25.0690 O.2   177  LYS177     -0.2715
     31  CB        36.0790   56.5770   27.0110 C.3   177  LYS177      0.0311
     32  CG        35.6250   55.9790   28.3350 C.3   177  LYS177      0.0038
     33  CD        34.2970   55.2130   28.1910 C.3   177  LYS177      0.0206
     34  CE        33.1410   56.1310   27.7850 C.3   177  LYS177      0.1093
     35  NZ        32.8530   57.1480   28.8440 N.3   177  LYS177     -0.1314
     36  N         37.4190   58.4170   24.9920 N.am  178  SER178     -0.1936
     37  CA        37.7960   58.7770   23.6250 C.3   178  SER178      0.2055
     38  C         39.2230   59.3250   23.5360 C.2   178  SER178      0.2643
     39  O         39.9130   59.1200   22.5370 O.2   178  SER178     -0.2714
     40  CB        36.8200   59.7990   23.0540 C.3   178  SER178      0.2130
     41  OG        36.8340   60.9840   23.8180 O.3   178  SER178     -0.2179
     42  N         39.6610   60.0200   24.5820 N.am  179  THR179     -0.1950
     43  CA        41.0050   60.5620   24.6020 C.3   179  THR179      0.1897
     44  C         41.9560   59.3890   24.5270 C.2   179  THR179      0.2313
     45  O         42.9520   59.4420   23.8120 O.2   179  THR179     -0.2863
     46  CB        41.2930   61.3790   25.9000 C.3   179  THR179      0.1794
     47  OG1       40.4460   62.5320   25.9340 O.3   179  THR179     -0.2208
     48  CG2       42.7630   61.8460   25.9440 C.3   179  THR179      0.0378
     49  N         35.0240   52.8700   21.9340 N.3   217  ASP217     -0.1239
     50  CA        34.6320   53.3760   23.2490 C.3   217  ASP217      0.1674
     51  C         33.1230   53.1680   23.3660 C.2   217  ASP217      0.2266
     52  O         32.4480   52.8540   22.3750 O.2   217  ASP217     -0.2867
     53  CB        35.0310   54.8450   23.4670 C.3   217  ASP217      0.1410
     54  CG        34.4670   55.7840   22.4320 C.2   217  ASP217      0.3668
     55  OD1       33.7860   55.3400   21.4800 O.co2 217  ASP217     -0.2456
     56  OD2       34.7250   56.9930   22.5860 O.co2 217  ASP217     -0.2456
     57  N         30.4440   55.3840   24.8040 N.3   219  PRO219     -0.2116
     58  CA        29.5700   56.4340   25.3460 C.3   219  PRO219      0.1372
     59  C         28.1010   56.0490   25.1570 C.2   219  PRO219      0.2244
     60  O         27.7070   55.5510   24.1010 O.2   219  PRO219     -0.2868
     61  CB        29.9570   57.6680   24.5290 C.3   219  PRO219      0.0268
     62  CG        30.2650   57.0630   23.1660 C.3   219  PRO219      0.0207
     63  CD        31.0620   55.8030   23.5290 C.3   219  PRO219      0.0892
     64  N         37.1050   64.8250   38.3760 N.3   256  HIS256     -0.1241
     65  CA        36.8040   65.9820   37.5320 C.3   256  HIS256      0.1621
     66  C         35.7790   65.5930   36.4790 C.2   256  HIS256      0.2264
     67  O         35.1080   66.4500   35.9090 O.2   256  HIS256     -0.2867
     68  CB        38.0690   66.5230   36.8730 C.3   256  HIS256      0.0745
     69  CG        39.0570   67.0820   37.8500 C.ar  256  HIS256      0.0817
     70  ND1       40.3570   67.3840   37.5070 N.ar  256  HIS256     -0.2268
     71  CD2       38.9400   67.3680   39.1680 C.ar  256  HIS256      0.1154
     72  CE1       40.9980   67.8270   38.5730 C.ar  256  HIS256      0.1986
     73  NE2       40.1620   67.8260   39.5940 N.ar  256  HIS256     -0.2212
     74  N         43.2090   56.8390   35.1210 N.3   285  ASN285     -0.1225
     75  CA        43.5320   58.0270   34.3310 C.3   285  ASN285      0.1785
     76  C         43.6400   59.3160   35.1240 C.2   285  ASN285      0.2597
     77  O         43.4440   59.3240   36.3320 O.2   285  ASN285     -0.2718
     78  CB        42.4860   58.1880   33.2250 C.3   285  ASN285      0.1169
     79  CG        42.9640   59.0690   32.0770 C.2   285  ASN285      0.2627
     80  OD1       44.1230   58.9990   31.6520 O.2   285  ASN285     -0.2716
     81  ND2       42.0600   59.8820   31.5510 N.am  285  ASN285     -0.0877
     82  N         43.9470   60.4100   34.4300 N.am  286  LYS286     -0.1980
     83  CA        44.1050   61.7170   35.0730 C.3   286  LYS286      0.1596
     84  C         45.1550   61.7210   36.2060 C.2   286  LYS286      0.2287
     85  O         44.9960   62.4430   37.1860 O.2   286  LYS286     -0.2864
     86  CB        42.7650   62.2150   35.6520 C.3   286  LYS286      0.0298
     87  CG        41.8570   62.9780   34.6960 C.3   286  LYS286      0.0038
     88  CD        40.9210   62.0600   33.9500 C.3   286  LYS286      0.0206
     89  CE        39.9470   62.8630   33.0910 C.3   286  LYS286      0.1093
     90  NZ        38.9310   63.5970   33.8960 N.3   286  LYS286     -0.1314
     91  N         47.9210   63.0330   36.1410 N.3   288  ASP288     -0.1225
     92  CA        48.5980   64.3280   36.0690 C.3   288  ASP288      0.1805
     93  C         47.9060   65.4250   36.8840 C.2   288  ASP288      0.2597
     94  O         48.4920   66.4760   37.1490 O.2   288  ASP288     -0.2718
     95  CB        48.7040   64.7820   34.6070 C.3   288  ASP288      0.1424
     96  CG        47.3400   64.9670   33.9520 C.2   288  ASP288      0.3668
     97  OD1       46.5710   63.9870   33.9080 O.co2 288  ASP288     -0.2456
     98  OD2       47.0340   66.0840   33.4830 O.co2 288  ASP288     -0.2456
     99  N         46.6610   65.1790   37.2790 N.am  289  VAL289     -0.1980
    100  CA        45.8970   66.1620   38.0390 C.3   289  VAL289      0.1595
    101  C         45.1980   65.5170   39.2370 C.2   289  VAL289      0.2287
    102  O         44.5520   66.1940   40.0330 O.2   289  VAL289     -0.2864
    103  CB        44.8440   66.8540   37.1260 C.3   289  VAL289      0.0276
    104  CG1       44.1300   67.9490   37.8760 C.3   289  VAL289      0.0022
    105  CG2       45.5270   67.4460   35.9040 C.3   289  VAL289      0.0022
    106  N         47.8790   58.9270   31.8900 N.3   313  SER313     -0.1202
    107  CA        47.3670   60.2630   31.6080 C.3   313  SER313      0.2020
    108  C         47.1210   60.2690   30.1090 C.2   313  SER313      0.2619
    109  O         48.0240   60.5330   29.3230 O.2   313  SER313     -0.2717
    110  CB        48.3770   61.3490   31.9680 C.3   313  SER313      0.2103
    111  OG        47.9690   62.5970   31.4240 O.3   313  SER313     -0.2182
    112  N         45.8940   59.9440   29.7200 N.am  314  ALA314     -0.1965
    113  CA        45.5260   59.8910   28.3140 C.3   314  ALA314      0.1728
    114  C         45.8520   61.1950   27.5880 C.2   314  ALA314      0.2616
    115  O         46.2430   61.1850   26.4180 O.2   314  ALA314     -0.2715
    116  CB        44.0290   59.5700   28.1780 C.3   314  ALA314      0.0334
    117  N         45.6980   62.3140   28.2890 N.am  315  LEU315     -0.1977
    118  CA        45.9530   63.6150   27.6900 C.3   315  LEU315      0.1596
    119  C         47.4270   63.8550   27.3800 C.2   315  LEU315      0.2287
    120  O         47.7680   64.3200   26.2940 O.2   315  LEU315     -0.2864
    121  CB        45.4440   64.7360   28.6020 C.3   315  LEU315      0.0297
    122  CG        44.6770   65.8860   27.9330 C.3   315  LEU315      0.0022
    123  CD1       44.4130   66.9720   28.9600 C.3   315  LEU315      0.0001
    124  CD2       45.4700   66.4570   26.7670 C.3   315  LEU315      0.0001
@<TRIPOS>BOND
     1    55    54   ar
     2    49    50    1
     3    52    51    2
     4    54    56   ar
     5    54    53    1
     6    39    38    2
     7    40    37    1
     8    40    41    1
     9    62    63    1
    10    62    61    1
    11    50    51    1
    12    50    53    1
    13    63    57    1
    14    38    37    1
    15    38    42   am
    16    37    36    1
    17    45    44    2
    18    60    59    2
    19    44    43    1
    20    61    58    1
    21    42    43    1
    22    43    46    1
    23    57    58    1
    24    36    29   am
    25    30    29    2
    26    59    58    1
    27    29    28    1
    28    46    47    1
    29    46    48    1
    30   120   119    2
    31   115   114    2
    32   124   122    1
    33    31    28    1
    34    31    32    1
    35    28    27    1
    36   119   118    1
    37    26    25    2
    38   114   117   am
    39   114   113    1
    40   118   117    1
    41   118   121    1
    42    34    33    1
    43    34    35    1
    44   122   121    1
    45   122   123    1
    46    27    25   am
    47    25    24    1
    48   116   113    1
    49    33    32    1
    50   113   112    1
    51    24    23    1
    52   109   108    2
    53   112   108   am
    54    14    13    2
    55    23    18   am
    56   108   107    1
    57     8     9    1
    58     8     3   am
    59     9    10    1
    60     9    12    1
    61     5     2    1
    62     5     6    1
    63     2     3    1
    64     2     1    1
    65    13    12    1
    66    13    15   am
    67    18    19    2
    68    18    17    1
    69     6     7    1
    70   111   110    1
    71     3     4    2
    72    10    16   am
    73    10    11    2
    74    16    17    1
    75    81    79   am
    76   107   106    1
    77   107   110    1
    78    80    79    2
    79    22    20    1
    80     1     7    1
    81    79    78    1
    82    17    20    1
    83    20    21    1
    84    89    90    1
    85    89    88    1
    86    78    75    1
    87    98    96   ar
    88    97    96   ar
    89    88    87    1
    90    96    95    1
    91    75    74    1
    92    75    76    1
    93    82    83    1
    94    82    76   am
    95    95    92    1
    96    87    86    1
    97    83    86    1
    98    83    84    1
    99    76    77    2
   100   105   103    1
   101    67    66    2
   102    92    91    1
   103    92    93    1
   104    84    85    2
   105    66    65    1
   106    68    65    1
   107    68    69    1
   108    93    94    2
   109    93    99   am
   110   103   104    1
   111   103   100    1
   112    99   100    1
   113    70    69   ar
   114    70    72   ar
   115    65    64    1
   116    69    71   ar
   117   100   101    1
   118    72    73   ar
   119    71    73   ar
   120   101   102    2
