@<TRIPOS>MOLECULE
tmp/2e89B00.pdb
 86 82 0 0 0
SMALL
GASTEIGER

@<TRIPOS>ATOM
      1  N         -5.5660   22.0010   94.7770 N.3    34  GLY34      -0.1210
      2  CA        -5.3440   22.7780   93.5620 C.3    34  GLY34       0.1956
      3  C         -5.6270   22.0060   92.2810 C.2    34  GLY34       0.2611
      4  O         -5.9260   20.7950   92.3350 O.2    34  GLY34      -0.2717
      5  N         -5.5280   22.6690   91.1270 N.am   35  VAL35      -0.1979
      6  CA        -5.8120   21.9660   89.8710 C.3    35  VAL35       0.1595
      7  C         -5.0820   20.6510   89.7110 C.2    35  VAL35       0.2287
      8  O         -5.7160   19.6230   89.5250 O.2    35  VAL35      -0.2864
      9  CB        -5.5120   22.7870   88.5740 C.3    35  VAL35       0.0276
     10  CG1       -6.7610   23.3430   88.0660 C.3    35  VAL35       0.0022
     11  CG2       -4.4960   23.8580   88.7970 C.3    35  VAL35       0.0022
     12  N         -4.5820   22.2460   82.9550 N.3   178  GLU178     -0.1245
     13  CA        -5.6410   23.2400   83.0290 C.3   178  GLU178      0.1567
     14  C         -6.7610   22.9500   82.0220 C.2   178  GLU178      0.2260
     15  O         -7.9420   23.1280   82.3350 O.2   178  GLU178     -0.2867
     16  CB        -5.0540   24.6410   82.8290 C.3   178  GLU178      0.0388
     17  CG        -4.1130   25.0720   83.9610 C.3   178  GLU178      0.1160
     18  CD        -3.4060   26.3950   83.6820 C.2   178  GLU178      0.3649
     19  OE1       -3.0380   26.6150   82.5090 O.co2 178  GLU178     -0.2457
     20  OE2       -3.1960   27.2070   84.6170 O.co2 178  GLU178     -0.2457
     21  N        -10.8440   21.9700   82.7890 N.3   182  LYS182     -0.1245
     22  CA       -11.9760   22.6900   82.1970 C.3   182  LYS182      0.1561
     23  C        -12.8600   21.6800   81.4580 C.2   182  LYS182      0.2260
     24  O        -14.0760   21.6220   81.6560 O.2   182  LYS182     -0.2867
     25  CB       -11.4700   23.7730   81.2370 C.3   182  LYS182      0.0271
     26  CG       -12.1930   25.1140   81.3660 C.3   182  LYS182      0.0035
     27  CD       -12.0470   25.7890   82.7800 C.3   182  LYS182      0.0206
     28  CE       -10.7680   26.6740   82.9730 C.3   182  LYS182      0.1093
     29  NZ        -9.4300   25.9580   83.2160 N.3   182  LYS182     -0.1314
     30  N        -11.6550   23.2850   91.6980 N.3   188  TRP188     -0.1227
     31  CA       -10.3860   23.2940   92.4170 C.3   188  TRP188      0.1737
     32  C        -10.1450   24.5310   93.2430 C.2   188  TRP188      0.2595
     33  O        -10.9320   25.4640   93.2420 O.2   188  TRP188     -0.2718
     34  CB        -9.2260   23.1100   91.4520 C.3   188  TRP188      0.0564
     35  CG        -9.0390   24.2240   90.5110 C.ar  188  TRP188      0.0003
     36  CD1       -8.3150   25.3600   90.7160 C.ar  188  TRP188      0.0946
     37  CD2       -9.5340   24.2980   89.1730 C.ar  188  TRP188      0.0152
     38  NE1       -8.3170   26.1390   89.5780 N.ar  188  TRP188     -0.2442
     39  CE2       -9.0570   25.5060   88.6150 C.ar  188  TRP188      0.0810
     40  CE3      -10.3300   23.4560   88.3840 C.ar  188  TRP188      0.0012
     41  CZ2       -9.3460   25.8880   87.3000 C.ar  188  TRP188      0.0191
     42  CZ3      -10.6180   23.8410   87.0700 C.ar  188  TRP188      0.0001
     43  CH2      -10.1240   25.0430   86.5480 C.ar  188  TRP188      0.0015
     44  N         -9.0330   24.5360   93.9570 N.am  189  VAL189     -0.1966
     45  CA        -8.7190   25.6490   94.8350 C.3   189  VAL189      0.1727
     46  C         -7.7700   26.6300   94.1480 C.2   189  VAL189      0.2616
     47  O         -6.9460   26.2450   93.3220 O.2   189  VAL189     -0.2715
     48  CB        -8.1050   25.1200   96.1750 C.3   189  VAL189      0.0290
     49  CG1       -6.6300   24.8020   95.9840 C.3   189  VAL189      0.0023
     50  CG2       -8.2590   26.1280   97.2700 C.3   189  VAL189      0.0023
     51  N         -7.9130   27.9030   94.4970 N.am  190  GLU190     -0.1963
     52  CA        -7.1050   28.9840   93.9450 C.3   190  GLU190      0.1733
     53  C         -5.6910   29.0140   94.5060 C.2   190  GLU190      0.2616
     54  O         -5.4830   28.9620   95.7170 O.2   190  GLU190     -0.2715
     55  CB        -7.7920   30.3300   94.2200 C.3   190  GLU190      0.0429
     56  CG        -8.9630   30.2620   95.2420 C.3   190  GLU190      0.1163
     57  CD        -8.5170   30.1410   96.7160 C.2   190  GLU190      0.3649
     58  OE1       -7.6670   29.2770   97.0280 O.co2 190  GLU190     -0.2457
     59  OE2       -9.0260   30.9060   97.5720 O.co2 190  GLU190     -0.2457
     60  N         -4.7190   29.1090   93.6150 N.am  191  ASP191     -0.1971
     61  CA        -3.3260   29.1700   94.0190 C.3   191  ASP191      0.1709
     62  C         -2.9520   30.6240   94.3340 C.2   191  ASP191      0.2293
     63  O         -2.5540   31.3760   93.4500 O.2   191  ASP191     -0.2864
     64  CB        -2.4600   28.6150   92.8920 C.3   191  ASP191      0.1436
     65  CG        -1.0320   28.3690   93.3240 C.2   191  ASP191      0.3671
     66  OD1       -0.7970   28.1940   94.5450 O.co2 191  ASP191     -0.2456
     67  OD2       -0.1480   28.3350   92.4390 O.co2 191  ASP191     -0.2456
     68  N          0.8930   32.3680   93.4470 N.3   194  ASN194     -0.1240
     69  CA         1.4400   32.5840   92.1020 C.3   194  ASN194      0.1653
     70  C          2.2660   33.8560   92.2310 C.2   194  ASN194      0.2266
     71  O          3.4850   33.8510   92.0660 O.2   194  ASN194     -0.2867
     72  CB         0.3110   32.8200   91.1010 C.3   194  ASN194      0.1155
     73  CG         0.0210   31.6070   90.2490 C.2   194  ASN194      0.2627
     74  OD1       -0.2680   30.5280   90.7600 O.2   194  ASN194     -0.2716
     75  ND2        0.0930   31.7800   88.9350 N.am  194  ASN194     -0.0877
     76  N          9.0590   31.0310   87.3830 N.3   205  ARG205     -0.1245
     77  CA         7.8050   30.6850   86.7620 C.3   205  ARG205      0.1563
     78  C          7.2020   31.8630   86.0000 C.2   205  ARG205      0.2260
     79  O          6.7690   31.7200   84.8470 O.2   205  ARG205     -0.2867
     80  CB         6.8280   30.1860   87.8430 C.3   205  ARG205      0.0307
     81  CG         5.4220   29.9450   87.3500 C.3   205  ARG205      0.0489
     82  CD         4.4950   29.3190   88.4070 C.3   205  ARG205      0.2205
     83  NE         3.1400   29.1750   87.8580 N.pl3 205  ARG205     -0.0865
     84  CZ         2.1160   28.5800   88.4650 C.cat 205  ARG205      0.5346
     85  NH1        2.2630   28.0460   89.6750 N.pl3 205  ARG205      0.1354
     86  NH2        0.9380   28.5220   87.8510 N.pl3 205  ARG205      0.1354
@<TRIPOS>BOND
     1    25    26    1
     2    25    22    1
     3    26    27    1
     4    23    24    2
     5    23    22    1
     6    14    15    2
     7    14    13    1
     8    22    21    1
     9    19    18   ar
    10    27    28    1
    11    16    13    1
    12    16    17    1
    13    12    13    1
    14    28    29    1
    15    18    17    1
    16    18    20   ar
    17    79    78    2
    18    78    77    1
    19    43    42   ar
    20    43    41   ar
    21    77    76    1
    22    77    80    1
    23    42    40   ar
    24    41    39   ar
    25    81    80    1
    26    81    82    1
    27    86    84    1
    28    83    82    1
    29    83    84    2
    30    10     9    1
    31    40    37   ar
    32    84    85    1
    33     9    11    1
    34     9     6    1
    35    39    37   ar
    36    39    38   ar
    37    75    73   am
    38    37    35   ar
    39     8     7    2
    40    38    36   ar
    41     7     6    1
    42     6     5    1
    43    73    74    2
    44    73    72    1
    45    35    36   ar
    46    35    34    1
    47    72    69    1
    48     5     3   am
    49    34    31    1
    50    30    31    1
    51    71    70    2
    52    69    70    1
    53    69    68    1
    54     3     4    2
    55     3     2    1
    56    31    32    1
    57    67    65   ar
    58    64    65    1
    59    64    61    1
    60    33    32    2
    61    32    44   am
    62    47    46    2
    63    65    66   ar
    64    63    62    2
    65     2     1    1
    66    60    61    1
    67    60    53   am
    68    52    55    1
    69    52    51    1
    70    52    53    1
    71    44    45    1
    72    61    62    1
    73    46    51   am
    74    46    45    1
    75    55    56    1
    76    53    54    2
    77    45    48    1
    78    56    57    1
    79    49    48    1
    80    48    50    1
    81    57    58   ar
    82    57    59   ar
