@<TRIPOS>MOLECULE
tmp/2e89A00.pdb
 160 153 0 0 0
SMALL
GASTEIGER

@<TRIPOS>ATOM
      1  N         41.4580   38.6680   68.1910 N.3    30  ALA30      -0.1231
      2  CA        40.2190   38.9250   67.4880 C.3    30  ALA30       0.1694
      3  C         39.7550   40.2350   68.1160 C.2    30  ALA30       0.2592
      4  O         38.8380   40.2660   68.9440 O.2    30  ALA30      -0.2718
      5  CB        39.2230   37.7990   67.7730 C.3    30  ALA30       0.0304
      6  N         40.3980   41.3180   67.7130 N.am   31  PHE31      -0.1962
      7  CA        40.1180   42.6300   68.2690 C.3    31  PHE31       0.1771
      8  C         38.9120   43.3780   67.7020 C.2    31  PHE31       0.2620
      9  O         38.9480   43.8320   66.5630 O.2    31  PHE31      -0.2715
     10  CB        41.3680   43.4910   68.1060 C.3    31  PHE31       0.0574
     11  CG        41.3340   44.7600   68.8890 C.ar   31  PHE31      -0.0200
     12  CD1       41.5640   44.7500   70.2650 C.ar   31  PHE31      -0.0042
     13  CD2       41.0560   45.9610   68.2610 C.ar   31  PHE31      -0.0042
     14  CE1       41.5150   45.9200   71.0040 C.ar   31  PHE31      -0.0003
     15  CE2       41.0040   47.1320   68.9810 C.ar   31  PHE31      -0.0003
     16  CZ        41.2330   47.1190   70.3600 C.ar   31  PHE31      -0.0000
     17  N         37.8580   43.5350   68.5020 N.am   32  SER32      -0.1950
     18  CA        36.6710   44.2570   68.0490 C.3    32  SER32       0.1924
     19  C         36.7010   45.7610   68.4080 C.2    32  SER32       0.2314
     20  O         36.0410   46.5720   67.7630 O.2    32  SER32      -0.2863
     21  CB        35.4260   43.6510   68.6720 C.3    32  SER32       0.2116
     22  OG        35.2780   44.1330   69.9970 O.3    32  SER32      -0.2180
     23  N         35.9330   44.2040   76.3850 N.3    36  ASP36      -0.1225
     24  CA        36.5840   42.9220   76.5700 C.3    36  ASP36       0.1805
     25  C         37.8090   42.7560   75.6730 C.2    36  ASP36       0.2598
     26  O         38.8320   42.2300   76.1120 O.2    36  ASP36      -0.2718
     27  CB        35.5810   41.7810   76.3790 C.3    36  ASP36       0.1424
     28  CG        34.8230   41.8580   75.0680 C.2    36  ASP36       0.3668
     29  OD1       33.8340   41.0920   74.9520 O.co2  36  ASP36      -0.2456
     30  OD2       35.2010   42.6530   74.1610 O.co2  36  ASP36      -0.2456
     31  N         37.7340   43.2340   74.4340 N.am   37  SER37      -0.1952
     32  CA        38.8840   43.1230   73.5280 C.3    37  SER37       0.1924
     33  C         40.0290   44.0090   74.0170 C.2    37  SER37       0.2314
     34  O         41.1970   43.6060   73.9950 O.2    37  SER37      -0.2863
     35  CB        38.5140   43.5480   72.1000 C.3    37  SER37       0.2116
     36  OG        37.6210   42.6290   71.5110 O.3    37  SER37      -0.2180
     37  N         43.6050   42.0190   64.9220 N.3    59  ALA59      -0.1231
     38  CA        42.9260   41.6510   63.6890 C.3    59  ALA59       0.1694
     39  C         41.5180   42.1380   63.9030 C.2    59  ALA59       0.2592
     40  O         40.7890   41.6060   64.7430 O.2    59  ALA59      -0.2718
     41  CB        42.9340   40.1320   63.4760 C.3    59  ALA59       0.0304
     42  N         41.1450   43.1750   63.1660 N.am   60  HIS60      -0.1962
     43  CA        39.8090   43.7410   63.2880 C.3    60  HIS60       0.1787
     44  C         39.0200   43.4560   62.0200 C.2    60  HIS60       0.2620
     45  O         39.5820   43.3900   60.9260 O.2    60  HIS60      -0.2715
     46  CB        39.8990   45.2480   63.5260 C.3    60  HIS60       0.0785
     47  CG        38.5700   45.9310   63.5750 C.ar   60  HIS60       0.0821
     48  ND1       37.6130   45.6270   64.5170 N.ar   60  HIS60      -0.2267
     49  CD2       38.0410   46.9090   62.8000 C.ar   60  HIS60       0.1154
     50  CE1       36.5500   46.3880   64.3220 C.ar   60  HIS60       0.1986
     51  NE2       36.7840   47.1740   63.2860 N.ar   60  HIS60      -0.2212
     52  N         37.7160   43.2740   62.1840 N.am   61  PHE61      -0.1974
     53  CA        36.8360   43.0000   61.0600 C.3    61  PHE61       0.1639
     54  C         35.7190   44.0250   60.9920 C.2    61  PHE61       0.2290
     55  O         34.9700   44.2180   61.9640 O.2    61  PHE61      -0.2864
     56  CB        36.2290   41.6120   61.1860 C.3    61  PHE61       0.0560
     57  CG        35.4970   41.1680   59.9650 C.ar   61  PHE61      -0.0200
     58  CD1       36.1420   41.1450   58.7250 C.ar   61  PHE61      -0.0042
     59  CD2       34.1800   40.7270   60.0500 C.ar   61  PHE61      -0.0042
     60  CE1       35.4890   40.6830   57.5800 C.ar   61  PHE61      -0.0003
     61  CE2       33.5150   40.2610   58.9130 C.ar   61  PHE61      -0.0003
     62  CZ        34.1750   40.2380   57.6720 C.ar   61  PHE61      -0.0000
     63  N         23.7950   38.2540   61.5600 N.3   106  GLU106     -0.1245
     64  CA        24.6490   37.6420   62.5670 C.3   106  GLU106      0.1567
     65  C         25.4730   36.4690   62.0180 C.2   106  GLU106      0.2260
     66  O         26.6320   36.6360   61.6400 O.2   106  GLU106     -0.2867
     67  CB        23.7620   37.1770   63.7190 C.3   106  GLU106      0.0388
     68  CG        24.4850   36.7660   64.9780 C.3   106  GLU106      0.1160
     69  CD        23.5200   36.5650   66.1290 C.2   106  GLU106      0.3649
     70  OE1       23.9730   36.2110   67.2400 O.co2 106  GLU106     -0.2457
     71  OE2       22.3020   36.7670   65.9170 O.co2 106  GLU106     -0.2457
     72  N         29.6250   36.0170   61.5200 N.3   110  ARG110     -0.1245
     73  CA        30.4160   35.1020   62.3140 C.3   110  ARG110      0.1563
     74  C         31.3260   34.3380   61.3730 C.2   110  ARG110      0.2260
     75  O         32.5460   34.3230   61.5420 O.2   110  ARG110     -0.2867
     76  CB        29.5080   34.1180   63.0360 C.3   110  ARG110      0.0307
     77  CG        28.8170   34.6850   64.2490 C.3   110  ARG110      0.0489
     78  CD        27.6030   33.8420   64.5690 C.3   110  ARG110      0.2205
     79  NE        27.2700   33.8720   65.9840 N.pl3 110  ARG110     -0.0865
     80  CZ        26.1320   33.4050   66.4820 C.cat 110  ARG110      0.5346
     81  NH1       25.2210   32.8790   65.6730 N.pl3 110  ARG110      0.1354
     82  NH2       25.9080   33.4530   67.7890 N.pl3 110  ARG110      0.1354
     83  N         33.9540   36.7440   59.8800 N.3   113  ARG113     -0.1245
     84  CA        34.9460   37.2490   60.8110 C.3   113  ARG113      0.1563
     85  C         35.9830   36.1420   60.9620 C.2   113  ARG113      0.2260
     86  O         37.1910   36.3960   60.9510 O.2   113  ARG113     -0.2867
     87  CB        34.2980   37.5380   62.1570 C.3   113  ARG113      0.0307
     88  CG        35.2090   38.1890   63.1690 C.3   113  ARG113      0.0489
     89  CD        34.5760   38.0550   64.5320 C.3   113  ARG113      0.2205
     90  NE        33.1410   38.3100   64.4540 N.pl3 113  ARG113     -0.0865
     91  CZ        32.2520   37.9020   65.3560 C.cat 113  ARG113      0.5346
     92  NH1       32.6380   37.2160   66.4220 N.pl3 113  ARG113      0.1354
     93  NH2       30.9640   38.1590   65.1800 N.pl3 113  ARG113      0.1354
     94  N         40.0090   35.6610   59.9290 N.3   117  LEU117     -0.1245
     95  CA        40.9510   35.3590   60.9880 C.3   117  LEU117      0.1561
     96  C         41.7700   34.1270   60.6100 C.2   117  LEU117      0.2260
     97  O         42.9970   34.1610   60.7060 O.2   117  LEU117     -0.2867
     98  CB        40.1980   35.1520   62.3040 C.3   117  LEU117      0.0270
     99  CG        39.4830   36.4200   62.7950 C.3   117  LEU117      0.0019
    100  CD1       38.5130   36.0950   63.9210 C.3   117  LEU117      0.0001
    101  CD2       40.5190   37.4310   63.2420 C.3   117  LEU117      0.0001
    102  N         40.5700   35.2930   71.6380 N.3   131  THR131     -0.1203
    103  CA        39.2750   35.9470   71.6250 C.3   131  THR131      0.1994
    104  C         38.9730   36.5220   73.0010 C.2   131  THR131      0.2618
    105  O         39.5660   36.0940   73.9830 O.2   131  THR131     -0.2717
    106  CB        38.1980   34.9190   71.2760 C.3   131  THR131      0.1784
    107  OG1       38.3200   34.5530   69.8880 O.3   131  THR131     -0.2211
    108  CG2       36.8510   35.4670   71.5330 C.3   131  THR131      0.0376
    109  N         38.0410   37.4700   73.0770 N.am  132  ALA132     -0.1965
    110  CA        37.6930   38.0810   74.3540 C.3   132  ALA132      0.1728
    111  C         36.4670   37.4850   75.0570 C.2   132  ALA132      0.2616
    112  O         35.8620   38.1350   75.9170 O.2   132  ALA132     -0.2715
    113  CB        37.5150   39.5880   74.1890 C.3   132  ALA132      0.0334
    114  N         36.1130   36.2530   74.7090 N.am  133  HIS133     -0.1973
    115  CA        34.9880   35.5970   75.3410 C.3   133  HIS133      0.1656
    116  C         35.2250   35.5610   76.8430 C.2   133  HIS133      0.2291
    117  O         36.3330   35.2940   77.3060 O.2   133  HIS133     -0.2864
    118  CB        34.8310   34.1750   74.8010 C.3   133  HIS133      0.0771
    119  CG        34.1650   34.1140   73.4580 C.ar  133  HIS133      0.0820
    120  ND1       34.8670   34.0320   72.2760 N.ar  133  HIS133     -0.2267
    121  CD2       32.8570   34.1800   73.1130 C.ar  133  HIS133      0.1154
    122  CE1       34.0240   34.0550   71.2620 C.ar  133  HIS133      0.1986
    123  NE2       32.7970   34.1440   71.7420 N.ar  133  HIS133     -0.2212
    124  N         29.6350   35.5120   78.7150 N.3   137  ASP137     -0.1239
    125  CA        29.2840   35.0100   77.3910 C.3   137  ASP137      0.1674
    126  C         28.9490   33.5250   77.5790 C.2   137  ASP137      0.2266
    127  O         27.9210   33.0250   77.0900 O.2   137  ASP137     -0.2867
    128  CB        30.4410   35.1590   76.4000 C.3   137  ASP137      0.1410
    129  CG        30.8210   36.6110   76.1500 C.2   137  ASP137      0.3668
    130  OD1       29.9250   37.4760   76.0790 O.co2 137  ASP137     -0.2456
    131  OD2       32.0280   36.9000   76.0080 O.co2 137  ASP137     -0.2456
    132  N         25.4850   31.7790   76.5820 N.3   141  THR141     -0.1218
    133  CA        25.5460   30.7000   75.6240 C.3   141  THR141      0.1862
    134  C         24.9090   29.4510   76.2210 C.2   141  THR141      0.2287
    135  O         23.9700   28.8870   75.6470 O.2   141  THR141     -0.2866
    136  CB        26.9830   30.3610   75.2940 C.3   141  THR141      0.1770
    137  OG1       27.6120   31.5040   74.7040 O.3   141  THR141     -0.2211
    138  CG2       27.0390   29.2090   74.3490 C.3   141  THR141      0.0375
    139  N         31.3180   26.8970   75.1000 N.3   158  PHE158     -0.1241
    140  CA        32.6140   26.8480   74.4720 C.3   158  PHE158      0.1605
    141  C         33.6880   26.5420   75.5170 C.2   158  PHE158      0.2264
    142  O         33.4640   26.6890   76.7200 O.2   158  PHE158     -0.2867
    143  CB        32.8850   28.1760   73.7500 C.3   158  PHE158      0.0534
    144  CG        32.6610   29.3920   74.5960 C.ar  158  PHE158     -0.0203
    145  CD1       33.7170   29.9780   75.2820 C.ar  158  PHE158     -0.0042
    146  CD2       31.3960   29.9720   74.6890 C.ar  158  PHE158     -0.0042
    147  CE1       33.5160   31.1300   76.0450 C.ar  158  PHE158     -0.0003
    148  CE2       31.1820   31.1320   75.4550 C.ar  158  PHE158     -0.0003
    149  CZ        32.2390   31.7080   76.1280 C.ar  158  PHE158     -0.0000
    150  N         20.2990   35.6030   72.6030 N.3   201  ARG201     -0.1245
    151  CA        21.4190   35.8300   73.4860 C.3   201  ARG201      0.1563
    152  C         21.2000   37.1440   74.2300 C.2   201  ARG201      0.2260
    153  O         21.3420   37.1990   75.4470 O.2   201  ARG201     -0.2867
    154  CB        22.7220   35.8590   72.6890 C.3   201  ARG201      0.0307
    155  CG        23.9780   35.7120   73.5400 C.3   201  ARG201      0.0489
    156  CD        24.8750   34.5470   73.0880 C.3   201  ARG201      0.2205
    157  NE        25.8200   34.9350   72.0380 N.pl3 201  ARG201     -0.0865
    158  CZ        25.5640   34.8900   70.7300 C.cat 201  ARG201      0.5346
    159  NH1       24.3820   34.4620   70.2910 N.pl3 201  ARG201      0.1354
    160  NH2       26.4860   35.2910   69.8560 N.pl3 201  ARG201      0.1354
@<TRIPOS>BOND
     1    60    62   ar
     2    60    58   ar
     3    62    61   ar
     4    58    57   ar
     5    61    59   ar
     6    83    84    1
     7    94    95    1
     8    57    59   ar
     9    57    56    1
    10    96    97    2
    11    96    95    1
    12    84    85    1
    13    84    87    1
    14    45    44    2
    15    86    85    2
    16    95    98    1
    17    54    53    1
    18    54    55    2
    19    53    56    1
    20    53    52    1
    21    74    75    2
    22    74    73    1
    23    72    73    1
    24    63    64    1
    25    66    65    2
    26    65    64    1
    27    44    52   am
    28    44    43    1
    29    87    88    1
    30    98    99    1
    31    73    76    1
    32    64    67    1
    33    99   101    1
    34    99   100    1
    35    49    51   ar
    36    49    47   ar
    37    76    77    1
    38    42    43    1
    39    42    39   am
    40    88    89    1
    41    51    50   ar
    42    43    46    1
    43    41    38    1
    44    46    47    1
    45    47    48   ar
    46    38    39    1
    47    38    37    1
    48    67    68    1
    49    39    40    2
    50    77    78    1
    51    50    48   ar
    52    90    89    1
    53    90    91    2
    54    78    79    1
    55    68    69    1
    56    93    91    1
    57    91    92    1
    58    81    80    1
    59    71    69   ar
    60    79    80    2
    61    69    70   ar
    62    80    82    1
    63     9     8    2
    64     2     5    1
    65     2     3    1
    66     2     1    1
    67     8     7    1
    68     8    17   am
    69     6     3   am
    70     6     7    1
    71    20    19    2
    72    18    19    1
    73    18    17    1
    74    18    21    1
    75    10     7    1
    76    10    11    1
    77     3     4    2
    78    13    11   ar
    79    13    15   ar
    80    21    22    1
    81    11    12   ar
    82    15    16   ar
    83   160   158    1
    84   107   106    1
    85    12    14   ar
    86   159   158    1
    87    16    14   ar
    88   158   157    2
    89   122   123   ar
    90   122   120   ar
    91   106   108    1
    92   106   103    1
    93    36    35    1
    94   103   102    1
    95   103   104    1
    96   123   121   ar
    97   157   156    1
    98    35    32    1
    99   120   119   ar
   100   150   151    1
   101   154   151    1
   102   154   155    1
   103   104   109   am
   104   104   105    2
   105   109   110    1
   106   156   155    1
   107   121   119   ar
   108   119   118    1
   109   151   152    1
   110    32    33    1
   111    32    31    1
   112   143   140    1
   113   143   144    1
   114    34    33    2
   115    30    28   ar
   116   113   110    1
   117   152   153    2
   118   138   136    1
   119   110   111    1
   120    31    25   am
   121   140   139    1
   122   140   141    1
   123   144   146   ar
   124   144   145   ar
   125   146   148   ar
   126   137   136    1
   127   114   111   am
   128   114   115    1
   129   118   115    1
   130    29    28   ar
   131   111   112    2
   132    28    27    1
   133   145   147   ar
   134   136   133    1
   135   115   116    1
   136   148   149   ar
   137   141   142    2
   138   133   134    1
   139   133   132    1
   140   135   134    2
   141    25    26    2
   142    25    24    1
   143   131   129   ar
   144   147   149   ar
   145   130   129   ar
   146   129   128    1
   147    27    24    1
   148    23    24    1
   149   128   125    1
   150   116   117    2
   151   127   126    2
   152   125   126    1
   153   125   124    1
