@<TRIPOS>MOLECULE
tmp/2e8tB00.pdb
 104 97 0 0 0
SMALL
GASTEIGER

@<TRIPOS>ATOM
      1  N         10.4880   32.3260   31.1930 N.3    34  LYS34      -0.1245
      2  CA        11.1740   31.1280   31.7040 C.3    34  LYS34       0.1561
      3  C         11.4290   31.2340   33.2300 C.2    34  LYS34       0.2260
      4  O         10.6440   31.9590   33.8740 O.2    34  LYS34      -0.2867
      5  CB        12.5100   30.9680   30.9370 C.3    34  LYS34       0.0271
      6  CG        13.4180   29.8070   31.3870 C.3    34  LYS34       0.0035
      7  CD        14.9040   30.0710   31.2060 C.3    34  LYS34       0.0206
      8  CE        15.2280   31.4980   31.5260 C.3    34  LYS34       0.1093
      9  NZ        16.5560   31.6060   32.1400 N.3    34  LYS34      -0.1314
     10  N         18.3490   31.9320   41.1540 N.3    35  ARG35      -0.1245
     11  CA        19.5980   32.7260   40.8770 C.3    35  ARG35       0.1563
     12  C         19.4940   34.0840   41.5820 C.2    35  ARG35       0.2260
     13  O         20.4810   34.6010   42.1180 O.2    35  ARG35      -0.2867
     14  CB        19.7680   32.9370   39.3620 C.3    35  ARG35       0.0307
     15  CG        21.2250   33.1470   38.8730 C.3    35  ARG35       0.0489
     16  CD        21.6170   32.0520   37.8410 C.3    35  ARG35       0.2205
     17  NE        23.0030   32.1230   37.3510 N.pl3  35  ARG35      -0.0865
     18  CZ        23.5700   31.1850   36.5950 C.cat  35  ARG35       0.5346
     19  NH1       22.8740   30.1120   36.2440 N.pl3  35  ARG35       0.1354
     20  NH2       24.8340   31.3090   36.1980 N.pl3  35  ARG35       0.1354
     21  N         22.8810   36.5730   32.2150 N.3    64  HIS64      -0.1241
     22  CA        22.5250   35.1740   32.2170 C.3    64  HIS64       0.1621
     23  C         21.6090   34.8100   31.0670 C.2    64  HIS64       0.2264
     24  O         21.9070   33.8890   30.3220 O.2    64  HIS64      -0.2867
     25  CB        21.9020   34.7640   33.5610 C.3    64  HIS64       0.0745
     26  CG        21.4180   33.3510   33.5950 C.ar   64  HIS64       0.0817
     27  ND1       22.2550   32.2680   33.4000 N.ar   64  HIS64      -0.2268
     28  CD2       20.1810   32.8410   33.7860 C.ar   64  HIS64       0.1154
     29  CE1       21.5510   31.1540   33.4720 C.ar   64  HIS64       0.1986
     30  NE2       20.2900   31.4730   33.7050 N.ar   64  HIS64      -0.2212
     31  N         22.4950   32.4750   27.5750 N.3    68  LEU68      -0.1245
     32  CA        21.7650   31.2800   27.1430 C.3    68  LEU68       0.1561
     33  C         21.3130   31.4040   25.6800 C.2    68  LEU68       0.2260
     34  O         21.3230   30.3870   24.9320 O.2    68  LEU68      -0.2867
     35  CB        20.5440   31.0060   28.0410 C.3    68  LEU68       0.0270
     36  CG        20.8310   30.8120   29.5450 C.3    68  LEU68       0.0019
     37  CD1       19.5470   30.6500   30.3040 C.3    68  LEU68       0.0001
     38  CD2       21.7090   29.6190   29.7740 C.3    68  LEU68       0.0001
     39  N         24.4250   30.6680   23.8350 N.3    71  ASP71      -0.1239
     40  CA        24.7830   29.2850   24.0320 C.3    71  ASP71       0.1674
     41  C         23.9200   28.3430   23.2450 C.2    71  ASP71       0.2266
     42  O         24.4250   27.3560   22.6870 O.2    71  ASP71      -0.2867
     43  CB        24.7430   28.9290   25.5140 C.3    71  ASP71       0.1410
     44  CG        25.2070   27.4870   25.7790 C.2    71  ASP71       0.3668
     45  OD1       24.3240   26.6130   25.9140 O.co2  71  ASP71      -0.2456
     46  OD2       26.4410   27.2340   25.8410 O.co2  71  ASP71      -0.2456
     47  N         14.8900   25.1010   25.2970 N.3    80  ARG80      -0.1231
     48  CA        15.4760   25.6910   26.4910 C.3    80  ARG80       0.1694
     49  C         14.2810   25.9200   27.4480 C.2    80  ARG80       0.2591
     50  O         13.3060   26.6080   27.1000 O.2    80  ARG80      -0.2718
     51  CB        16.2000   27.0140   26.1410 C.3    80  ARG80       0.0321
     52  CG        16.5220   27.9240   27.3260 C.3    80  ARG80       0.0489
     53  CD        17.6660   27.4290   28.2020 C.3    80  ARG80       0.2205
     54  NE        18.9280   27.3560   27.4710 N.pl3  80  ARG80      -0.0865
     55  CZ        20.0620   26.8740   27.9760 C.cat  80  ARG80       0.5346
     56  NH1       20.1010   26.4320   29.2200 N.pl3  80  ARG80       0.1354
     57  NH2       21.1610   26.7830   27.2230 N.pl3  80  ARG80       0.1354
     58  N         14.3620   25.3120   28.6310 N.am   81  ARG81      -0.1980
     59  CA        13.2940   25.4200   29.6150 C.3    81  ARG81       0.1597
     60  C         11.9210   25.0520   29.0010 C.2    81  ARG81       0.2287
     61  O         10.9560   25.8110   29.1010 O.2    81  ARG81      -0.2864
     62  CB        13.2870   26.8480   30.1860 C.3    81  ARG81       0.0334
     63  CG        13.8860   26.9240   31.6060 C.3    81  ARG81       0.0492
     64  CD        15.2230   26.1750   31.7450 C.3    81  ARG81       0.2205
     65  NE        16.3930   26.9940   31.4050 N.pl3  81  ARG81      -0.0865
     66  CZ        17.6280   26.5170   31.2730 C.cat  81  ARG81       0.5346
     67  NH1       17.8750   25.2230   31.4430 N.pl3  81  ARG81       0.1354
     68  NH2       18.6250   27.3400   30.9830 N.pl3  81  ARG81       0.1354
     69  N         31.3670   28.5390   34.0950 N.3   166  THR166     -0.1218
     70  CA        30.2630   28.5650   35.0520 C.3   166  THR166      0.1862
     71  C         30.5510   29.4520   36.2800 C.2   166  THR166      0.2287
     72  O         29.6480   30.0950   36.8240 O.2   166  THR166     -0.2866
     73  CB        29.9490   27.1500   35.4680 C.3   166  THR166      0.1770
     74  OG1       29.8670   26.3640   34.2680 O.3   166  THR166     -0.2211
     75  CG2       28.6360   27.0830   36.2450 C.3   166  THR166      0.0375
     76  N         27.5160   23.1040   40.3150 N.3   197  TYR197     -0.1227
     77  CA        26.4060   23.4240   39.4260 C.3   197  TYR197      0.1736
     78  C         26.5560   22.8130   38.0220 C.2   197  TYR197      0.2595
     79  O         25.5970   22.2400   37.4630 O.2   197  TYR197     -0.2718
     80  CB        26.3050   24.9400   39.2460 C.3   197  TYR197      0.0548
     81  CG        24.9070   25.3820   39.0000 C.ar  197  TYR197     -0.0200
     82  CD1       24.0500   25.6070   40.0690 C.ar  197  TYR197     -0.0009
     83  CD2       24.4300   25.5610   37.7130 C.ar  197  TYR197     -0.0009
     84  CE1       22.7380   26.0110   39.8680 C.ar  197  TYR197      0.0417
     85  CE2       23.1200   25.9580   37.4850 C.ar  197  TYR197      0.0417
     86  CZ        22.2700   26.1870   38.5750 C.ar  197  TYR197      0.1957
     87  OH        20.9580   26.6100   38.3950 O.3   197  TYR197     -0.2866
     88  N         27.7490   22.9650   37.4450 N.am  198  GLN198     -0.1979
     89  CA        27.9870   22.4920   36.0750 C.3   198  GLN198      0.1601
     90  C         28.0150   20.9590   35.9480 C.2   198  GLN198      0.2287
     91  O         27.4170   20.3770   35.0390 O.2   198  GLN198     -0.2864
     92  CB        29.3070   23.0640   35.5250 C.3   198  GLN198      0.0394
     93  CG        29.4180   22.7690   34.0250 C.3   198  GLN198      0.0908
     94  CD        28.2320   23.3850   33.2690 C.2   198  GLN198      0.2608
     95  OE1       28.0040   24.5890   33.3610 O.2   198  GLN198     -0.2717
     96  NE2       27.4750   22.5720   32.5580 N.am  198  GLN198     -0.0878
     97  N         24.5200   19.7620   36.1790 N.3   201  ASP201     -0.1239
     98  CA        23.8280   20.0180   34.9300 C.3   201  ASP201      0.1674
     99  C         24.2300   18.8680   33.9580 C.2   201  ASP201      0.2266
    100  O         23.3640   18.2200   33.3720 O.2   201  ASP201     -0.2867
    101  CB        24.2670   21.4000   34.4000 C.3   201  ASP201      0.1410
    102  CG        23.5240   21.8310   33.1450 C.2   201  ASP201      0.3668
    103  OD1       22.2660   21.7900   33.1250 O.co2 201  ASP201     -0.2456
    104  OD2       24.2140   22.2440   32.1660 O.co2 201  ASP201     -0.2456
@<TRIPOS>BOND
     1    42    41    2
     2    41    40    1
     3    39    40    1
     4    40    43    1
     5    34    33    2
     6    47    48    1
     7    43    44    1
     8    33    32    1
     9    44    46   ar
    10    44    45   ar
    11    51    48    1
    12    51    52    1
    13    48    49    1
    14    50    49    2
    15    32    31    1
    16    32    35    1
    17    57    55    1
    18    52    53    1
    19    49    58   am
    20    54    55    2
    21    54    53    1
    22    55    56    1
    23    35    36    1
    24    58    59    1
    25    60    61    2
    26    60    59    1
    27    36    38    1
    28    36    37    1
    29    59    62    1
    30    62    63    1
    31    24    23    2
    32     5     6    1
    33     5     2    1
    34    68    66    1
    35    23    22    1
    36     1     2    1
    37     7     6    1
    38     7     8    1
    39    66    65    2
    40    66    67    1
    41    65    64    1
    42     8     9    1
    43    63    64    1
    44     2     3    1
    45   104   102   ar
    46    21    22    1
    47    22    25    1
    48    96    94   am
    49   103   102   ar
    50   102   101    1
    51     3     4    2
    52    94    95    2
    53    94    93    1
    54   100    99    2
    55    27    29   ar
    56    27    26   ar
    57    29    30   ar
    58    25    26    1
    59    26    28   ar
    60    30    28   ar
    61    99    98    1
    62    93    92    1
    63    69    70    1
    64    74    73    1
    65   101    98    1
    66    98    97    1
    67    91    90    2
    68    70    73    1
    69    70    71    1
    70    73    75    1
    71    92    89    1
    72    90    89    1
    73    89    88    1
    74    20    18    1
    75    19    18    1
    76    71    72    2
    77    18    17    2
    78    17    16    1
    79    88    78   am
    80    79    78    2
    81    85    83   ar
    82    85    86   ar
    83    83    81   ar
    84    16    15    1
    85    78    77    1
    86    87    86    1
    87    86    84   ar
    88    15    14    1
    89    81    80    1
    90    81    82   ar
    91    80    77    1
    92    14    11    1
    93    77    76    1
    94    84    82   ar
    95    11    10    1
    96    11    12    1
    97    12    13    2
