@<TRIPOS>MOLECULE
tmp/2e8tB01.pdb
 225 209 0 0 0
SMALL
GASTEIGER

@<TRIPOS>ATOM
      1  N         18.3490   31.9320   41.1540 N.3    35  ARG35      -0.1245
      2  CA        19.5980   32.7260   40.8770 C.3    35  ARG35       0.1563
      3  C         19.4940   34.0840   41.5820 C.2    35  ARG35       0.2260
      4  O         20.4810   34.6010   42.1180 O.2    35  ARG35      -0.2867
      5  CB        19.7680   32.9370   39.3620 C.3    35  ARG35       0.0307
      6  CG        21.2250   33.1470   38.8730 C.3    35  ARG35       0.0489
      7  CD        21.6170   32.0520   37.8410 C.3    35  ARG35       0.2205
      8  NE        23.0030   32.1230   37.3510 N.pl3  35  ARG35      -0.0865
      9  CZ        23.5700   31.1850   36.5950 C.cat  35  ARG35       0.5346
     10  NH1       22.8740   30.1120   36.2440 N.pl3  35  ARG35       0.1354
     11  NH2       24.8340   31.3090   36.1980 N.pl3  35  ARG35       0.1354
     12  N         22.8580   39.3340   31.6620 N.3    63  LEU63      -0.1231
     13  CA        23.9890   38.5020   31.2770 C.3    63  LEU63       0.1693
     14  C         23.6180   37.0480   31.1990 C.2    63  LEU63       0.2592
     15  O         23.9920   36.3590   30.2400 O.2    63  LEU63      -0.2718
     16  CB        25.1450   38.6400   32.2630 C.3    63  LEU63       0.0284
     17  CG        25.6160   40.0980   32.2710 C.3    63  LEU63       0.0019
     18  CD1       26.7150   40.2490   33.2790 C.3    63  LEU63       0.0001
     19  CD2       26.0730   40.5030   30.8280 C.3    63  LEU63       0.0001
     20  N         22.8810   36.5730   32.2150 N.am   64  HIS64      -0.1976
     21  CA        22.5250   35.1740   32.2170 C.3    64  HIS64       0.1656
     22  C         21.6090   34.8100   31.0670 C.2    64  HIS64       0.2291
     23  O         21.9070   33.8890   30.3220 O.2    64  HIS64      -0.2864
     24  CB        21.9020   34.7640   33.5610 C.3    64  HIS64       0.0771
     25  CG        21.4180   33.3510   33.5950 C.ar   64  HIS64       0.0820
     26  ND1       22.2550   32.2680   33.4000 N.ar   64  HIS64      -0.2267
     27  CD2       20.1810   32.8410   33.7860 C.ar   64  HIS64       0.1154
     28  CE1       21.5510   31.1540   33.4720 C.ar   64  HIS64       0.1986
     29  NE2       20.2900   31.4730   33.7050 N.ar   64  HIS64      -0.2212
     30  N         23.4030   35.0730   27.7520 N.3    67  SER67      -0.1202
     31  CA        24.3960   34.0230   27.5460 C.3    67  SER67       0.2020
     32  C         23.7050   32.7440   27.0800 C.2    67  SER67       0.2618
     33  O         24.2530   32.0270   26.2470 O.2    67  SER67      -0.2717
     34  CB        25.1960   33.7670   28.8280 C.3    67  SER67       0.2103
     35  OG        24.3330   33.2190   29.8070 O.3    67  SER67      -0.2182
     36  N         22.4950   32.4750   27.5750 N.am   68  LEU68      -0.1979
     37  CA        21.7650   31.2800   27.1430 C.3    68  LEU68       0.1596
     38  C         21.3130   31.4040   25.6800 C.2    68  LEU68       0.2287
     39  O         21.3230   30.3870   24.9320 O.2    68  LEU68      -0.2864
     40  CB        20.5440   31.0060   28.0410 C.3    68  LEU68       0.0297
     41  CG        20.8310   30.8120   29.5450 C.3    68  LEU68       0.0022
     42  CD1       19.5470   30.6500   30.3040 C.3    68  LEU68       0.0001
     43  CD2       21.7090   29.6190   29.7740 C.3    68  LEU68       0.0001
     44  N         22.8450   32.9780   23.3100 N.3    70  ILE70      -0.1231
     45  CA        24.0500   32.6810   22.5240 C.3    70  ILE70       0.1692
     46  C         24.4650   31.2000   22.6270 C.2    70  ILE70       0.2592
     47  O         24.8060   30.5430   21.6400 O.2    70  ILE70      -0.2718
     48  CB        25.2020   33.6740   22.9890 C.3    70  ILE70       0.0266
     49  CG1       24.9670   35.0410   22.3210 C.3    70  ILE70       0.0019
     50  CG2       26.6270   33.1830   22.5810 C.3    70  ILE70       0.0020
     51  CD1       25.5370   36.1600   23.1730 C.3    70  ILE70       0.0001
     52  N         24.4250   30.6680   23.8350 N.am   71  ASP71      -0.1960
     53  CA        24.7830   29.2850   24.0320 C.3    71  ASP71       0.1840
     54  C         23.9200   28.3430   23.2450 C.2    71  ASP71       0.2622
     55  O         24.4250   27.3560   22.6870 O.2    71  ASP71      -0.2715
     56  CB        24.7430   28.9290   25.5140 C.3    71  ASP71       0.1450
     57  CG        25.2070   27.4870   25.7790 C.2    71  ASP71       0.3671
     58  OD1       24.3240   26.6130   25.9140 O.co2  71  ASP71      -0.2456
     59  OD2       26.4410   27.2340   25.8410 O.co2  71  ASP71      -0.2456
     60  N         22.6180   28.6130   23.1790 N.am   72  ASP72      -0.1971
     61  CA        21.7670   27.7220   22.3990 C.3    72  ASP72       0.1709
     62  C         22.0790   27.7760   20.9030 C.2    72  ASP72       0.2293
     63  O         21.8960   26.7900   20.2180 O.2    72  ASP72      -0.2864
     64  CB        20.2620   28.0010   22.6560 C.3    72  ASP72       0.1436
     65  CG        19.8310   27.5660   24.0660 C.2    72  ASP72       0.3671
     66  OD1       20.3490   26.5460   24.5720 O.co2  72  ASP72      -0.2456
     67  OD2       18.9900   28.2570   24.6690 O.co2  72  ASP72      -0.2456
     68  N         25.1080   28.3780   19.8290 N.3    74  GLU74      -0.1231
     69  CA        26.3880   27.7020   19.7300 C.3    74  GLU74       0.1699
     70  C         26.3060   26.1920   19.8800 C.2    74  GLU74       0.2592
     71  O         27.1700   25.4570   19.4080 O.2    74  GLU74      -0.2718
     72  CB        27.3530   28.2920   20.7600 C.3    74  GLU74       0.0402
     73  CG        27.6890   29.7610   20.4600 C.3    74  GLU74       0.1161
     74  CD        28.3920   30.4530   21.6230 C.2    74  GLU74       0.3649
     75  OE1       29.0900   31.4800   21.3750 O.co2  74  GLU74      -0.2457
     76  OE2       28.2560   29.9380   22.7610 O.co2  74  GLU74      -0.2457
     77  N         25.2480   25.7450   20.5540 N.am   75  ASP75      -0.1974
     78  CA        25.0470   24.3370   20.8080 C.3    75  ASP75       0.1709
     79  C         23.9740   23.7140   19.9200 C.2    75  ASP75       0.2293
     80  O         23.6200   22.5700   20.0990 O.2    75  ASP75      -0.2864
     81  CB        24.7260   24.1600   22.3060 C.3    75  ASP75       0.1436
     82  CG        25.8770   24.6490   23.1890 C.2    75  ASP75       0.3671
     83  OD1       26.9020   25.0850   22.5910 O.co2  75  ASP75      -0.2456
     84  OD2       25.7910   24.6300   24.4470 O.co2  75  ASP75      -0.2456
     85  N         14.8900   25.1010   25.2970 N.3    80  ARG80      -0.1245
     86  CA        15.4760   25.6910   26.4910 C.3    80  ARG80       0.1563
     87  C         14.2810   25.9200   27.4480 C.2    80  ARG80       0.2260
     88  O         13.3060   26.6080   27.1000 O.2    80  ARG80      -0.2867
     89  CB        16.2000   27.0140   26.1410 C.3    80  ARG80       0.0307
     90  CG        16.5220   27.9240   27.3260 C.3    80  ARG80       0.0489
     91  CD        17.6660   27.4290   28.2020 C.3    80  ARG80       0.2205
     92  NE        18.9280   27.3560   27.4710 N.pl3  80  ARG80      -0.0865
     93  CZ        20.0620   26.8740   27.9760 C.cat  80  ARG80       0.5346
     94  NH1       20.1010   26.4320   29.2200 N.pl3  80  ARG80       0.1354
     95  NH2       21.1610   26.7830   27.2230 N.pl3  80  ARG80       0.1354
     96  N         24.3310   42.5190   26.4340 N.3   103  TYR103     -0.1241
     97  CA        25.5920   42.4830   27.2020 C.3   103  TYR103      0.1605
     98  C         25.9770   43.9320   27.4910 C.2   103  TYR103      0.2264
     99  O         26.3730   44.2860   28.5960 O.2   103  TYR103     -0.2867
    100  CB        26.7480   41.8810   26.3860 C.3   103  TYR103      0.0534
    101  CG        26.7510   40.3880   26.1880 C.ar  103  TYR103     -0.0201
    102  CD1       27.6090   39.8220   25.2660 C.ar  103  TYR103     -0.0009
    103  CD2       25.9090   39.5360   26.9130 C.ar  103  TYR103     -0.0009
    104  CE1       27.6570   38.4580   25.0560 C.ar  103  TYR103      0.0417
    105  CE2       25.9400   38.1170   26.6940 C.ar  103  TYR103      0.0417
    106  CZ        26.8290   37.6060   25.7660 C.ar  103  TYR103      0.1957
    107  OH        26.9690   36.2510   25.5310 O.3   103  TYR103     -0.2866
    108  N         33.7070   38.6990   32.2440 N.3   131  LEU131     -0.1245
    109  CA        33.1470   38.4450   30.9300 C.3   131  LEU131      0.1561
    110  C         34.2390   37.7870   30.1020 C.2   131  LEU131      0.2260
    111  O         33.9850   36.8190   29.3910 O.2   131  LEU131     -0.2867
    112  CB        32.5800   39.7200   30.2990 C.3   131  LEU131      0.0270
    113  CG        31.0810   39.6330   30.6910 C.3   131  LEU131      0.0019
    114  CD1       30.5340   40.9060   31.2400 C.3   131  LEU131      0.0001
    115  CD2       30.3020   39.2000   29.4850 C.3   131  LEU131      0.0001
    116  N         34.4340   34.2120   31.1360 N.3   134  LEU134     -0.1231
    117  CA        33.2880   33.4660   30.6320 C.3   134  LEU134      0.1693
    118  C         33.4830   32.9820   29.1920 C.2   134  LEU134      0.2592
    119  O         33.2470   31.8310   28.8750 O.2   134  LEU134     -0.2718
    120  CB        32.0590   34.3330   30.7150 C.3   134  LEU134      0.0284
    121  CG        31.1470   33.6850   31.7250 C.3   134  LEU134      0.0019
    122  CD1       30.4770   34.7420   32.6060 C.3   134  LEU134      0.0001
    123  CD2       30.1580   32.8630   30.9510 C.3   134  LEU134      0.0001
    124  N         33.9310   33.8840   28.3430 N.am  135  HIS135     -0.1976
    125  CA        34.1960   33.5740   26.9360 C.3   135  HIS135      0.1656
    126  C         35.3780   32.6080   26.7380 C.2   135  HIS135      0.2291
    127  O         35.3720   31.8080   25.8050 O.2   135  HIS135     -0.2864
    128  CB        34.4130   34.8770   26.1900 C.3   135  HIS135      0.0771
    129  CG        33.1500   35.6760   26.0480 C.ar  135  HIS135      0.0820
    130  ND1       32.3420   35.6000   24.9330 N.ar  135  HIS135     -0.2267
    131  CD2       32.5660   36.5730   26.8720 C.ar  135  HIS135      0.1154
    132  CE1       31.3250   36.4350   25.0670 C.ar  135  HIS135      0.1986
    133  NE2       31.4400   37.0380   26.2320 N.ar  135  HIS135     -0.2212
    134  N         33.7960   29.2330   27.7860 N.3   138  GLN138     -0.1245
    135  CA        32.8610   28.8830   26.7250 C.3   138  GLN138      0.1566
    136  C         33.6490   28.5380   25.4290 C.2   138  GLN138      0.2260
    137  O         33.3400   27.5740   24.7270 O.2   138  GLN138     -0.2867
    138  CB        31.9060   30.0730   26.5050 C.3   138  GLN138      0.0367
    139  CG        30.8830   29.8170   25.4850 C.3   138  GLN138      0.0905
    140  CD        29.7010   28.9550   26.0120 C.2   138  GLN138      0.2608
    141  OE1       28.6630   28.8780   25.3660 O.2   138  GLN138     -0.2717
    142  NE2       29.8740   28.3160   27.1570 N.am  138  GLN138     -0.0878
    143  N         35.1060   25.0230   25.7620 N.3   141  ASP141     -0.1239
    144  CA        34.0360   24.0180   25.7460 C.3   141  ASP141      0.1674
    145  C         33.6550   23.7720   24.2770 C.2   141  ASP141      0.2266
    146  O         33.5250   22.6190   23.8080 O.2   141  ASP141     -0.2867
    147  CB        32.8110   24.5110   26.5330 C.3   141  ASP141      0.1410
    148  CG        31.8580   23.3550   26.9530 C.2   141  ASP141      0.3668
    149  OD1       32.3030   22.1910   27.1170 O.co2 141  ASP141     -0.2456
    150  OD2       30.6620   23.6000   27.1420 O.co2 141  ASP141     -0.2456
    151  N         33.8870   29.1920   32.4890 N.3   165  LYS165     -0.1231
    152  CA        32.5140   29.1950   31.9950 C.3   165  LYS165      0.1693
    153  C         31.3410   29.3000   33.0020 C.2   165  LYS165      0.2592
    154  O         30.3970   30.0400   32.7590 O.2   165  LYS165     -0.2718
    155  CB        32.3000   27.9540   31.1230 C.3   165  LYS165      0.0285
    156  CG        30.9420   27.8360   30.4630 C.3   165  LYS165      0.0035
    157  CD        30.8200   26.5330   29.7080 C.3   165  LYS165      0.0206
    158  CE        30.4110   25.3530   30.6120 C.3   165  LYS165      0.1093
    159  NZ        30.0180   24.1520   29.8370 N.3   165  LYS165     -0.1314
    160  N         31.3670   28.5390   34.0950 N.am  166  THR166     -0.1953
    161  CA        30.2630   28.5650   35.0520 C.3   166  THR166      0.1897
    162  C         30.5510   29.4520   36.2800 C.2   166  THR166      0.2313
    163  O         29.6480   30.0950   36.8240 O.2   166  THR166     -0.2863
    164  CB        29.9490   27.1500   35.4680 C.3   166  THR166      0.1794
    165  OG1       29.8670   26.3640   34.2680 O.3   166  THR166     -0.2208
    166  CG2       28.6360   27.0830   36.2450 C.3   166  THR166      0.0378
    167  N         29.9880   33.9880   35.9000 N.3   169  LEU169     -0.1245
    168  CA        28.8190   34.7290   36.3450 C.3   169  LEU169      0.1561
    169  C         28.6150   34.6180   37.8570 C.2   169  LEU169      0.2260
    170  O         28.1260   35.5490   38.4970 O.2   169  LEU169     -0.2867
    171  CB        27.5940   34.2030   35.6440 C.3   169  LEU169      0.0270
    172  CG        26.6360   35.1610   34.9570 C.3   169  LEU169      0.0019
    173  CD1       25.2410   34.5050   34.9980 C.3   169  LEU169      0.0001
    174  CD2       26.6240   36.5220   35.6300 C.3   169  LEU169      0.0001
    175  N         27.7490   22.9650   37.4450 N.3   198  GLN198     -0.1245
    176  CA        27.9870   22.4920   36.0750 C.3   198  GLN198      0.1566
    177  C         28.0150   20.9590   35.9480 C.2   198  GLN198      0.2260
    178  O         27.4170   20.3770   35.0390 O.2   198  GLN198     -0.2867
    179  CB        29.3070   23.0640   35.5250 C.3   198  GLN198      0.0367
    180  CG        29.4180   22.7690   34.0250 C.3   198  GLN198      0.0905
    181  CD        28.2320   23.3850   33.2690 C.2   198  GLN198      0.2608
    182  OE1       28.0040   24.5890   33.3610 O.2   198  GLN198     -0.2717
    183  NE2       27.4750   22.5720   32.5580 N.am  198  GLN198     -0.0878
    184  N         24.5200   19.7620   36.1790 N.3   201  ASP201     -0.1239
    185  CA        23.8280   20.0180   34.9300 C.3   201  ASP201      0.1674
    186  C         24.2300   18.8680   33.9580 C.2   201  ASP201      0.2266
    187  O         23.3640   18.2200   33.3720 O.2   201  ASP201     -0.2867
    188  CB        24.2670   21.4000   34.4000 C.3   201  ASP201      0.1410
    189  CG        23.5240   21.8310   33.1450 C.2   201  ASP201      0.3668
    190  OD1       22.2660   21.7900   33.1250 O.co2 201  ASP201     -0.2456
    191  OD2       24.2140   22.2440   32.1660 O.co2 201  ASP201     -0.2456
    192  N         21.4430   15.8970   32.6370 N.3   205  ASN205     -0.1240
    193  CA        21.1410   15.8340   31.2100 C.3   205  ASN205      0.1653
    194  C         21.0420   14.3710   30.7190 C.2   205  ASN205      0.2266
    195  O         20.2100   14.0450   29.8770 O.2   205  ASN205     -0.2867
    196  CB        22.2440   16.6110   30.4560 C.3   205  ASN205      0.1155
    197  CG        22.0070   16.7030   28.9420 C.2   205  ASN205      0.2627
    198  OD1       22.3530   15.7920   28.1740 O.2   205  ASN205     -0.2716
    199  ND2       21.4220   17.8170   28.5080 N.am  205  ASN205     -0.0877
    200  N         22.9840   16.6620   25.3030 N.3   214  ASP214     -0.1239
    201  CA        24.4230   16.7660   25.3410 C.3   214  ASP214      0.1674
    202  C         25.0890   15.7830   24.4020 C.2   214  ASP214      0.2266
    203  O         26.1590   16.0640   23.8930 O.2   214  ASP214     -0.2867
    204  CB        24.9350   16.5340   26.7440 C.3   214  ASP214      0.1410
    205  CG        24.6730   17.7120   27.6350 C.2   214  ASP214      0.3668
    206  OD1       24.0440   18.6490   27.1140 O.co2 214  ASP214     -0.2456
    207  OD2       25.0800   17.7110   28.8220 O.co2 214  ASP214     -0.2456
    208  N         24.6770   16.9960   20.8800 N.3   217  GLU217     -0.1245
    209  CA        25.5690   18.1550   20.7260 C.3   217  GLU217      0.1567
    210  C         27.0430   17.6920   20.5880 C.2   217  GLU217      0.2260
    211  O         27.8740   18.3810   19.9720 O.2   217  GLU217     -0.2867
    212  CB        25.4300   19.0810   21.9450 C.3   217  GLU217      0.0388
    213  CG        26.2300   20.3980   21.8870 C.3   217  GLU217      0.1160
    214  CD        26.3620   21.1270   23.2610 C.2   217  GLU217      0.3649
    215  OE1       25.3820   21.0830   24.0520 O.co2 217  GLU217     -0.2457
    216  OE2       27.4250   21.7540   23.5480 O.co2 217  GLU217     -0.2457
    217  N         28.9390   17.1100   23.2390 N.3   219  LYS219     -0.1245
    218  CA        29.5540   17.8550   24.3390 C.3   219  LYS219      0.1561
    219  C         30.5660   17.0520   25.1750 C.2   219  LYS219      0.2260
    220  O         30.3160   15.9070   25.4980 O.2   219  LYS219     -0.2867
    221  CB        28.4120   18.3220   25.2650 C.3   219  LYS219      0.0271
    222  CG        28.7710   19.2680   26.3820 C.3   219  LYS219      0.0035
    223  CD        27.4630   19.8860   26.9060 C.3   219  LYS219      0.0206
    224  CE        27.6780   20.9060   28.0390 C.3   219  LYS219      0.1093
    225  NZ        26.3810   21.6320   28.3440 N.3   219  LYS219     -0.1314
@<TRIPOS>BOND
     1    71    70    2
     2    69    68    1
     3    69    70    1
     4    69    72    1
     5    70    77   am
     6    79    80    2
     7    79    78    1
     8   211   210    2
     9    63    62    2
    10    73    72    1
    11    73    74    1
    12    77    78    1
    13   210   209    1
    14   209   208    1
    15   209   212    1
    16    78    81    1
    17    62    61    1
    18    75    74   ar
    19    74    76   ar
    20    47    46    2
    21   213   212    1
    22   213   214    1
    23    81    82    1
    24    49    48    1
    25    49    51    1
    26    61    64    1
    27    61    60    1
    28    45    46    1
    29    45    48    1
    30    45    44    1
    31    50    48    1
    32    83    82   ar
    33    46    52   am
    34    64    65    1
    35    55    54    2
    36    60    54   am
    37    82    84   ar
    38   217   218    1
    39    54    53    1
    40   214   216   ar
    41   214   215   ar
    42   146   145    2
    43    52    53    1
    44   203   202    2
    45    53    56    1
    46    65    66   ar
    47    65    67   ar
    48   145   144    1
    49   218   219    1
    50   218   221    1
    51   202   201    1
    52   137   136    2
    53    39    38    2
    54   130   132   ar
    55   130   129   ar
    56   104   102   ar
    57   104   106   ar
    58   132   133   ar
    59   219   220    2
    60   221   222    1
    61   102   101   ar
    62    85    86    1
    63   200   201    1
    64   201   204    1
    65   141   140    2
    66   136   135    1
    67   139   140    1
    68   139   138    1
    69    56    57    1
    70   107   106    1
    71    38    37    1
    72   144   143    1
    73   144   147    1
    74   106   105   ar
    75    57    59   ar
    76    57    58   ar
    77   127   126    2
    78   140   142   am
    79   129   128    1
    80   129   131   ar
    81    89    86    1
    82    89    90    1
    83   101   100    1
    84   101   103   ar
    85   128   125    1
    86   133   131   ar
    87    33    32    2
    88   222   223    1
    89   100    97    1
    90    96    97    1
    91    86    87    1
    92   138   135    1
    93   147   148    1
    94   105   103   ar
    95   135   134    1
    96   126   125    1
    97   204   205    1
    98   223   224    1
    99   125   124    1
   100   148   149   ar
   101   148   150   ar
   102    32    31    1
   103    32    36   am
   104    88    87    2
   105   206   205   ar
   106    37    36    1
   107    37    40    1
   108    97    98    1
   109    95    93    1
   110    90    91    1
   111    92    93    2
   112    92    91    1
   113    98    99    2
   114    31    30    1
   115    31    34    1
   116   205   207   ar
   117    93    94    1
   118   224   225    1
   119    40    41    1
   120   198   197    2
   121   124   118   am
   122   199   197   am
   123    34    35    1
   124   119   118    2
   125   197   196    1
   126   118   117    1
   127   111   110    2
   128   115   113    1
   129    41    43    1
   130    41    42    1
   131   157   156    1
   132   157   158    1
   133   159   158    1
   134   195   194    2
   135   110   109    1
   136    15    14    2
   137   112   113    1
   138   112   109    1
   139    23    22    2
   140   196   193    1
   141   156   155    1
   142   117   120    1
   143   117   116    1
   144   113   114    1
   145   120   121    1
   146   194   193    1
   147    19    17    1
   148   109   108    1
   149   123   121    1
   150    22    21    1
   151   155   152    1
   152    14    13    1
   153    14    20   am
   154   193   192    1
   155    13    12    1
   156    13    16    1
   157   121   122    1
   158   152   151    1
   159   152   153    1
   160   191   189   ar
   161    20    21    1
   162    21    24    1
   163    16    17    1
   164    17    18    1
   165   183   181   am
   166   154   153    2
   167   153   160   am
   168   190   189   ar
   169   189   188    1
   170   181   182    2
   171   181   180    1
   172   187   186    2
   173    26    28   ar
   174    26    25   ar
   175    28    29   ar
   176    24    25    1
   177    25    27   ar
   178    29    27   ar
   179   186   185    1
   180   180   179    1
   181   160   161    1
   182   165   164    1
   183   188   185    1
   184   185   184    1
   185   172   173    1
   186   172   174    1
   187   172   171    1
   188   178   177    2
   189   161   164    1
   190   161   162    1
   191   164   166    1
   192   179   176    1
   193   171   168    1
   194   167   168    1
   195   177   176    1
   196   176   175    1
   197    11     9    1
   198    10     9    1
   199   162   163    2
   200   168   169    1
   201     9     8    2
   202     8     7    1
   203     7     6    1
   204   169   170    2
   205     6     5    1
   206     5     2    1
   207     2     1    1
   208     2     3    1
   209     3     4    2
