@<TRIPOS>MOLECULE
tmp/2e8uA01.pdb
 151 137 0 0 0
SMALL
GASTEIGER

@<TRIPOS>ATOM
      1  N        -18.7510   35.8330   65.8870 N.3    64  HIS64      -0.1241
      2  CA       -19.6540   35.4960   64.8120 C.3    64  HIS64       0.1621
      3  C        -18.9470   35.5260   63.4600 C.2    64  HIS64       0.2264
      4  O        -18.9630   34.5600   62.7220 O.2    64  HIS64      -0.2867
      5  CB       -20.8180   36.4450   64.7590 C.3    64  HIS64       0.0745
      6  CG       -21.8230   36.0850   63.7180 C.ar   64  HIS64       0.0817
      7  ND1      -22.3300   37.0060   62.8240 N.ar   64  HIS64      -0.2268
      8  CD2      -22.4220   34.9050   63.4340 C.ar   64  HIS64       0.1154
      9  CE1      -23.2030   36.4020   62.0340 C.ar   64  HIS64       0.1986
     10  NE2      -23.2750   35.1280   62.3860 N.ar   64  HIS64      -0.2212
     11  N        -16.1090   32.7470   63.1470 N.3    67  SER67      -0.1202
     12  CA       -16.6640   31.4000   62.9960 C.3    67  SER67       0.2020
     13  C        -17.2680   31.2360   61.5730 C.2    67  SER67       0.2618
     14  O        -17.2630   30.1330   61.0060 O.2    67  SER67      -0.2717
     15  CB       -17.7030   31.1360   64.0970 C.3    67  SER67       0.2103
     16  OG       -18.9270   31.7270   63.7550 O.3    67  SER67      -0.2182
     17  N        -17.7770   32.3100   60.9550 N.am   68  LEU68      -0.1979
     18  CA       -18.2540   32.1070   59.5830 C.3    68  LEU68       0.1596
     19  C        -17.0540   31.9470   58.6450 C.2    68  LEU68       0.2287
     20  O        -17.0990   31.1550   57.7200 O.2    68  LEU68      -0.2864
     21  CB       -19.1220   33.2640   59.0500 C.3    68  LEU68       0.0297
     22  CG       -20.3180   33.6310   59.9200 C.3    68  LEU68       0.0022
     23  CD1      -21.0110   34.9210   59.2740 C.3    68  LEU68       0.0001
     24  CD2      -21.2720   32.4190   60.0230 C.3    68  LEU68       0.0001
     25  N        -16.2360   28.3180   59.0720 N.3    71  ASP71      -0.1225
     26  CA       -17.3090   27.4970   58.6170 C.3    71  ASP71       0.1805
     27  C        -17.3350   27.4290   57.0790 C.2    71  ASP71       0.2597
     28  O        -17.5930   26.3610   56.4830 O.2    71  ASP71      -0.2718
     29  CB       -18.6450   28.0290   59.1600 C.3    71  ASP71       0.1424
     30  CG       -19.8540   27.1680   58.6970 C.2    71  ASP71       0.3668
     31  OD1      -20.0890   26.0890   59.2790 O.co2  71  ASP71      -0.2456
     32  OD2      -20.5470   27.5840   57.7410 O.co2  71  ASP71      -0.2456
     33  N        -17.0610   28.5580   56.4210 N.am   72  ASP72      -0.1974
     34  CA       -17.0840   28.5660   54.9800 C.3    72  ASP72       0.1709
     35  C        -15.9480   27.7390   54.3910 C.2    72  ASP72       0.2293
     36  O        -16.0820   27.2290   53.3120 O.2    72  ASP72      -0.2864
     37  CB       -17.0610   29.9900   54.4200 C.3    72  ASP72       0.1436
     38  CG       -18.4380   30.7010   54.5530 C.2    72  ASP72       0.3671
     39  OD1      -19.4710   29.9980   54.5620 O.co2  72  ASP72      -0.2456
     40  OD2      -18.4900   31.9520   54.6500 O.co2  72  ASP72      -0.2456
     41  N        -17.1280   24.2030   54.8480 N.3    75  ASP75      -0.1239
     42  CA       -18.2720   23.8370   54.0020 C.3    75  ASP75       0.1674
     43  C        -18.0300   24.0350   52.5090 C.2    75  ASP75       0.2266
     44  O        -18.9750   23.9300   51.6770 O.2    75  ASP75      -0.2867
     45  CB       -19.5130   24.6230   54.5200 C.3    75  ASP75       0.1410
     46  CG       -19.8590   24.2580   55.9400 C.2    75  ASP75       0.3668
     47  OD1      -19.2370   23.3240   56.4700 O.co2  75  ASP75      -0.2456
     48  OD2      -20.7250   24.8640   56.5880 O.co2  75  ASP75      -0.2456
     49  N        -20.8240   34.1120   50.5820 N.3    80  ARG80      -0.1245
     50  CA       -21.3240   34.3800   51.9190 C.3    80  ARG80       0.1563
     51  C        -21.8410   35.8090   51.8280 C.2    80  ARG80       0.2260
     52  O        -21.1710   36.6960   51.3720 O.2    80  ARG80      -0.2867
     53  CB       -20.1960   34.2020   52.9820 C.3    80  ARG80       0.0307
     54  CG       -20.4570   34.8460   54.3880 C.3    80  ARG80       0.0489
     55  CD       -21.5550   34.1360   55.2480 C.3    80  ARG80       0.2205
     56  NE       -21.1020   32.8010   55.6540 N.pl3  80  ARG80      -0.0865
     57  CZ       -21.8510   31.8900   56.2970 C.cat  80  ARG80       0.5346
     58  NH1      -23.1260   32.1400   56.6620 N.pl3  80  ARG80       0.1354
     59  NH2      -21.3360   30.6770   56.4940 N.pl3  80  ARG80       0.1354
     60  N        -19.9200   25.3670   70.6800 N.3   134  LEU134     -0.1245
     61  CA       -19.9720   25.6390   69.2470 C.3   134  LEU134      0.1561
     62  C        -19.0940   24.6460   68.4840 C.2   134  LEU134      0.2260
     63  O        -19.5030   24.1340   67.4730 O.2   134  LEU134     -0.2867
     64  CB       -19.5250   27.0800   68.9570 C.3   134  LEU134      0.0270
     65  CG       -19.2770   27.5080   67.4960 C.3   134  LEU134      0.0019
     66  CD1      -20.5510   27.2320   66.7150 C.3   134  LEU134      0.0001
     67  CD2      -18.9120   29.0220   67.3980 C.3   134  LEU134      0.0001
     68  N        -20.3000   21.9480   65.7010 N.3   138  GLN138     -0.1245
     69  CA       -19.7090   21.9980   64.3870 C.3   138  GLN138      0.1566
     70  C        -19.0730   20.6540   64.0460 C.2   138  GLN138      0.2260
     71  O        -19.2530   20.1430   62.9520 O.2   138  GLN138     -0.2867
     72  CB       -18.6610   23.1150   64.3150 C.3   138  GLN138      0.0367
     73  CG       -18.4210   23.5270   62.8890 C.3   138  GLN138      0.0905
     74  CD       -19.3690   24.6780   62.3830 C.2   138  GLN138      0.2608
     75  OE1      -20.5960   24.7180   62.6420 O.2   138  GLN138     -0.2717
     76  NE2      -18.7800   25.5760   61.6410 N.am  138  GLN138     -0.0878
     77  N        -21.7520   18.0920   62.8550 N.3   141  ASP141     -0.1239
     78  CA       -22.2850   18.5340   61.5370 C.3   141  ASP141      0.1674
     79  C        -21.3320   18.0660   60.4800 C.2   141  ASP141      0.2266
     80  O        -21.6930   17.4250   59.5120 O.2   141  ASP141     -0.2867
     81  CB       -22.3810   20.0580   61.4610 C.3   141  ASP141      0.1410
     82  CG       -23.5860   20.5460   60.6450 C.2   141  ASP141      0.3668
     83  OD1      -24.4390   19.7020   60.2860 O.co2 141  ASP141     -0.2456
     84  OD2      -23.7060   21.7770   60.3910 O.co2 141  ASP141     -0.2456
     85  N        -23.9560   23.6140   68.3920 N.3   165  LYS165     -0.1231
     86  CA       -23.4990   24.4480   67.3000 C.3   165  LYS165      0.1693
     87  C        -24.0740   25.8590   67.1530 C.2   165  LYS165      0.2592
     88  O        -23.3180   26.8180   67.0330 O.2   165  LYS165     -0.2718
     89  CB       -23.7070   23.6700   65.9710 C.3   165  LYS165      0.0285
     90  CG       -23.6710   24.5120   64.6830 C.3   165  LYS165      0.0035
     91  CD       -23.9760   23.6850   63.4450 C.3   165  LYS165      0.0206
     92  CE       -25.3340   23.9990   62.8100 C.3   165  LYS165      0.1093
     93  NZ       -25.4250   23.4520   61.3760 N.3   165  LYS165     -0.1314
     94  N        -25.3960   25.9800   67.1340 N.am  166  THR166     -0.1953
     95  CA       -26.0470   27.2620   66.9230 C.3   166  THR166      0.1897
     96  C        -26.3790   27.9130   68.2340 C.2   166  THR166      0.2313
     97  O        -26.3500   29.1510   68.3300 O.2   166  THR166     -0.2863
     98  CB       -27.3440   27.1010   66.1120 C.3   166  THR166      0.1794
     99  OG1      -27.0750   26.2900   64.9710 O.3   166  THR166     -0.2208
    100  CG2      -27.8710   28.4540   65.6380 C.3   166  THR166      0.0378
    101  N        -23.3690   30.4470   70.3740 N.3   169  LEU169     -0.1245
    102  CA       -23.2970   31.8900   70.3120 C.3   169  LEU169      0.1561
    103  C        -24.5300   32.6380   70.7960 C.2   169  LEU169      0.2260
    104  O        -24.4130   33.7740   71.2420 O.2   169  LEU169     -0.2867
    105  CB       -22.9750   32.3420   68.9060 C.3   169  LEU169      0.0270
    106  CG       -21.6220   33.0130   68.9090 C.3   169  LEU169      0.0019
    107  CD1      -21.1380   33.2490   67.4520 C.3   169  LEU169      0.0001
    108  CD2      -21.7310   34.3110   69.7000 C.3   169  LEU169      0.0001
    109  N        -31.7890   28.0130   63.0900 N.3   198  GLN198     -0.1245
    110  CA       -31.0110   27.0240   62.3420 C.3   198  GLN198      0.1566
    111  C        -31.9180   26.1820   61.3960 C.2   198  GLN198      0.2260
    112  O        -31.5660   25.9650   60.2420 O.2   198  GLN198     -0.2867
    113  CB       -30.2630   26.0830   63.2950 C.3   198  GLN198      0.0367
    114  CG       -29.2980   25.1400   62.5540 C.3   198  GLN198      0.0905
    115  CD       -28.2270   25.9080   61.7870 C.2   198  GLN198      0.2608
    116  OE1      -27.4090   26.5880   62.3850 O.2   198  GLN198     -0.2717
    117  NE2      -28.2460   25.8110   60.4510 N.am  198  GLN198     -0.0878
    118  N        -32.7850   28.3590   58.5150 N.3   201  ASP201     -0.1239
    119  CA       -31.6460   28.5580   57.6120 C.3   201  ASP201      0.1674
    120  C        -31.6360   27.3240   56.6800 C.2   201  ASP201      0.2266
    121  O        -31.6030   27.4810   55.4680 O.2   201  ASP201     -0.2867
    122  CB       -30.3220   28.6870   58.4180 C.3   201  ASP201      0.1410
    123  CG       -29.0440   28.6940   57.5220 C.2   201  ASP201      0.3668
    124  OD1      -28.0690   27.9640   57.8560 O.co2 201  ASP201     -0.2456
    125  OD2      -28.9870   29.4310   56.5060 O.co2 201  ASP201     -0.2456
    126  N        -26.4280   23.9770   50.2350 N.3   216  ASP216     -0.1239
    127  CA       -26.3290   22.9420   51.2450 C.3   216  ASP216      0.1674
    128  C        -26.3220   21.5760   50.5590 C.2   216  ASP216      0.2266
    129  O        -25.7780   20.6000   51.0970 O.2   216  ASP216     -0.2867
    130  CB       -27.5170   23.0100   52.1930 C.3   216  ASP216      0.1410
    131  CG       -27.4100   24.1830   53.1800 C.2   216  ASP216      0.3668
    132  OD1      -26.4180   24.9840   53.1120 O.co2 216  ASP216     -0.2456
    133  OD2      -28.3230   24.2930   54.0250 O.co2 216  ASP216     -0.2456
    134  N        -22.9350   20.9020   49.4380 N.3   219  GLU219     -0.1245
    135  CA       -22.0930   20.6430   50.6150 C.3   219  GLU219      0.1567
    136  C        -22.2810   19.2100   51.1200 C.2   219  GLU219      0.2260
    137  O        -21.3360   18.6030   51.6310 O.2   219  GLU219     -0.2867
    138  CB       -22.4490   21.6290   51.7600 C.3   219  GLU219      0.0388
    139  CG       -21.6440   21.4170   53.1230 C.3   219  GLU219      0.1160
    140  CD       -22.1740   22.3430   54.2340 C.2   219  GLU219      0.3649
    141  OE1      -21.9730   22.0360   55.4210 O.co2 219  GLU219     -0.2457
    142  OE2      -22.8120   23.3950   53.9140 O.co2 219  GLU219     -0.2457
    143  N        -24.7750   18.5160   53.2150 N.3   221  LYS221     -0.1245
    144  CA       -25.1910   18.7880   54.5850 C.3   221  LYS221      0.1561
    145  C        -26.3600   17.9880   55.1150 C.2   221  LYS221      0.2260
    146  O        -27.3550   17.7990   54.4210 O.2   221  LYS221     -0.2867
    147  CB       -25.5400   20.2640   54.7130 C.3   221  LYS221      0.0271
    148  CG       -25.6500   20.7370   56.1220 C.3   221  LYS221      0.0035
    149  CD       -26.0550   22.2000   56.1480 C.3   221  LYS221      0.0206
    150  CE       -25.8450   22.8470   57.5120 C.3   221  LYS221      0.1093
    151  NZ       -26.1220   24.2910   57.3310 N.3   221  LYS221     -0.1314
@<TRIPOS>BOND
     1   134   135    1
     2   126   127    1
     3   128   129    2
     4   128   127    1
     5    49    50    1
     6   135   136    1
     7   135   138    1
     8   136   137    2
     9   127   130    1
    10    52    51    2
    11    44    43    2
    12   138   139    1
    13    51    50    1
    14    50    53    1
    15   130   131    1
    16    43    42    1
    17    53    54    1
    18   132   131   ar
    19   139   140    1
    20   131   133   ar
    21   143   144    1
    22    36    35    2
    23   142   140   ar
    24    42    45    1
    25    42    41    1
    26   140   141   ar
    27    54    55    1
    28    35    34    1
    29    37    38    1
    30    37    34    1
    31   146   145    2
    32    45    46    1
    33    38    39   ar
    34    38    40   ar
    35   144   147    1
    36   144   145    1
    37   147   148    1
    38    34    33    1
    39    55    56    1
    40   121   120    2
    41    56    57    2
    42    46    47   ar
    43    46    48   ar
    44   148   149    1
    45   149   150    1
    46    57    59    1
    47    57    58    1
    48    33    27   am
    49    28    27    2
    50   125   123   ar
    51   120   119    1
    52    27    26    1
    53   151   150    1
    54   123   124   ar
    55   123   122    1
    56   119   122    1
    57   119   118    1
    58    20    19    2
    59    32    30   ar
    60    26    25    1
    61    26    29    1
    62    19    18    1
    63    30    29    1
    64    30    31   ar
    65    21    18    1
    66    21    22    1
    67    23    22    1
    68    80    79    2
    69    18    17    1
    70    22    24    1
    71   112   111    2
    72    83    82   ar
    73    84    82   ar
    74   117   115   am
    75    79    78    1
    76    82    81    1
    77    17    13   am
    78    14    13    2
    79    93    92    1
    80   111   110    1
    81    81    78    1
    82    78    77    1
    83    13    12    1
    84    76    74   am
    85   115   116    2
    86   115   114    1
    87     9    10   ar
    88     9     7   ar
    89   110   109    1
    90   110   113    1
    91    74    75    2
    92    74    73    1
    93    10     8   ar
    94   114   113    1
    95     4     3    2
    96    92    91    1
    97     7     6   ar
    98    73    72    1
    99    71    70    2
   100    12    11    1
   101    12    15    1
   102     8     6   ar
   103    91    90    1
   104     3     2    1
   105     6     5    1
   106    16    15    1
   107    70    69    1
   108    72    69    1
   109    69    68    1
   110    90    89    1
   111     5     2    1
   112     2     1    1
   113    99    98    1
   114   100    98    1
   115    89    86    1
   116    98    95    1
   117    66    65    1
   118    95    94    1
   119    95    96    1
   120    88    87    2
   121    94    87   am
   122    87    86    1
   123    86    85    1
   124    67    65    1
   125   107   106    1
   126    63    62    2
   127    65    64    1
   128    96    97    2
   129    62    61    1
   130   105   106    1
   131   105   102    1
   132   106   108    1
   133    64    61    1
   134    61    60    1
   135   102   101    1
   136   102   103    1
   137   103   104    2
