@<TRIPOS>MOLECULE
tmp/2e8vB00.pdb
 220 213 0 0 0
SMALL
GASTEIGER

@<TRIPOS>ATOM
      1  N          3.5200   11.6300   70.1280 N.3    34  PRO34      -0.2102
      2  CA         3.8510   12.6450   71.1450 C.3    34  PRO34       0.1504
      3  C          4.6010   13.9420   70.7700 C.2    34  PRO34       0.2576
      4  O          4.2380   15.0430   71.2330 O.2    34  PRO34      -0.2718
      5  CB         4.6060   11.8310   72.2030 C.3    34  PRO34       0.0282
      6  CG         5.3270   10.7900   71.3660 C.3    34  PRO34       0.0208
      7  CD         4.2330   10.3590   70.3930 C.3    34  PRO34       0.0893
      8  N          5.6160   13.8330   69.9250 N.am   35  GLY35      -0.1943
      9  CA         6.3880   15.0240   69.6090 C.3    35  GLY35       0.2014
     10  C          7.4620   15.0300   70.6750 C.2    35  GLY35       0.2639
     11  O          7.4920   14.0850   71.5000 O.2    35  GLY35      -0.2714
     12  N          8.3200   16.0450   70.7070 N.am   36  LYS36      -0.1963
     13  CA         9.4130   16.0680   71.7020 C.3    36  LYS36       0.1728
     14  C          9.1100   16.5450   73.1290 C.2    36  LYS36       0.2616
     15  O          9.9340   16.3520   74.0250 O.2    36  LYS36      -0.2715
     16  CB        10.5940   16.8840   71.1750 C.3    36  LYS36       0.0311
     17  CG        10.6630   16.9340   69.6620 C.3    36  LYS36       0.0038
     18  CD        11.8760   16.2560   69.1110 C.3    36  LYS36       0.0206
     19  CE        11.5620   15.4780   67.8060 C.3    36  LYS36       0.1093
     20  NZ        11.5210   16.2890   66.5250 N.3    36  LYS36      -0.1314
     21  N          7.9480   17.1590   73.3470 N.am   37  ASN37      -0.1958
     22  CA         7.5450   17.6600   74.6390 C.3    37  ASN37       0.1819
     23  C          8.3990   18.7020   75.2520 C.2    37  ASN37       0.2621
     24  O          8.3960   18.8870   76.4740 O.2    37  ASN37      -0.2715
     25  CB         7.3830   16.5300   75.6420 C.3    37  ASN37       0.1195
     26  CG         6.0550   15.8860   75.5160 C.2    37  ASN37       0.2630
     27  OD1        5.0220   16.5570   75.6410 O.2    37  ASN37      -0.2716
     28  ND2        6.0470   14.5840   75.2380 N.am   37  ASN37      -0.0877
     29  N          9.1570   19.3740   74.4170 N.am   38  PHE38      -0.1960
     30  CA        10.0090   20.4470   74.8610 C.3    38  PHE38       0.1771
     31  C          9.2630   21.3950   75.8260 C.2    38  PHE38       0.2619
     32  O          9.7730   21.7120   76.9210 O.2    38  PHE38      -0.2715
     33  CB        10.4600   21.2640   73.6380 C.3    38  PHE38       0.0574
     34  CG        11.3970   22.3970   73.9710 C.ar   38  PHE38      -0.0200
     35  CD1       12.7550   22.1510   74.2050 C.ar   38  PHE38      -0.0042
     36  CD2       10.9230   23.7000   74.0770 C.ar   38  PHE38      -0.0042
     37  CE1       13.6190   23.1820   74.5320 C.ar   38  PHE38      -0.0003
     38  CE2       11.7820   24.7590   74.4110 C.ar   38  PHE38      -0.0003
     39  CZ        13.1260   24.5120   74.6370 C.ar   38  PHE38      -0.0000
     40  N          8.0670   21.8480   75.4300 N.am   39  ARG39      -0.1977
     41  CA         7.3410   22.8360   76.2640 C.3    39  ARG39       0.1597
     42  C          6.9390   22.3450   77.6400 C.2    39  ARG39       0.2287
     43  O          7.0930   23.0870   78.6070 O.2    39  ARG39      -0.2864
     44  CB         6.1140   23.3900   75.5280 C.3    39  ARG39       0.0334
     45  CG         6.5180   24.1900   74.2850 C.3    39  ARG39       0.0492
     46  CD         5.3810   24.4310   73.3130 C.3    39  ARG39       0.2205
     47  NE         5.8610   25.1460   72.1130 N.pl3  39  ARG39      -0.0865
     48  CZ         6.5350   24.5480   71.1250 C.cat  39  ARG39       0.5346
     49  NH1        6.7990   23.2390   71.2010 N.pl3  39  ARG39       0.1354
     50  NH2        6.9520   25.2450   70.0670 N.pl3  39  ARG39       0.1354
     51  N         -3.1020   24.0930   73.7490 N.3    67  LEU67      -0.1231
     52  CA        -2.8300   25.1930   72.8260 C.3    67  LEU67       0.1693
     53  C         -1.7860   24.8320   71.8080 C.2    67  LEU67       0.2592
     54  O         -1.9550   25.1200   70.6500 O.2    67  LEU67      -0.2718
     55  CB        -2.3970   26.4280   73.5820 C.3    67  LEU67       0.0284
     56  CG        -3.5420   26.9880   74.4470 C.3    67  LEU67       0.0019
     57  CD1       -2.9680   28.2920   75.1650 C.3    67  LEU67       0.0001
     58  CD2       -4.8100   27.3070   73.5790 C.3    67  LEU67       0.0001
     59  N         -0.6870   24.2100   72.2320 N.am   68  HIS68      -0.1976
     60  CA         0.3650   23.8340   71.2940 C.3    68  HIS68       0.1656
     61  C         -0.1960   22.8590   70.2040 C.2    68  HIS68       0.2291
     62  O         -0.0600   23.1100   68.9880 O.2    68  HIS68      -0.2864
     63  CB         1.5040   23.1170   72.0650 C.3    68  HIS68       0.0771
     64  CG         2.5710   22.5960   71.1730 C.ar   68  HIS68       0.0820
     65  ND1        3.2370   23.4100   70.2820 N.ar   68  HIS68      -0.2267
     66  CD2        3.0730   21.3490   71.0030 C.ar   68  HIS68       0.1154
     67  CE1        4.0980   22.6830   69.5910 C.ar   68  HIS68       0.1986
     68  NE2        4.0250   21.4300   70.0150 N.ar   68  HIS68      -0.2212
     69  N         -2.7500   24.4640   67.9740 N.3    71  SER71      -0.1202
     70  CA        -2.1210   25.4120   67.0310 C.3    71  SER71       0.2020
     71  C         -1.4530   24.6920   65.8710 C.2    71  SER71       0.2618
     72  O         -1.3450   25.2220   64.7510 O.2    71  SER71      -0.2717
     73  CB        -1.0840   26.2960   67.6970 C.3    71  SER71       0.2103
     74  OG         0.1000   25.6330   68.0850 O.3    71  SER71      -0.2182
     75  N         -0.9420   23.4960   66.1230 N.am   72  LEU72      -0.1979
     76  CA        -0.3090   22.7530   65.0270 C.3    72  LEU72       0.1596
     77  C         -1.3810   22.3260   64.0210 C.2    72  LEU72       0.2287
     78  O         -1.1650   22.3900   62.8400 O.2    72  LEU72      -0.2864
     79  CB         0.3950   21.5130   65.6170 C.3    72  LEU72       0.0297
     80  CG         1.5770   21.7760   66.5680 C.3    72  LEU72       0.0022
     81  CD1        2.3890   20.4330   66.7960 C.3    72  LEU72       0.0001
     82  CD2        2.5030   22.8150   65.9090 C.3    72  LEU72       0.0001
     83  N         -4.0410   23.8440   63.2320 N.3    74  ILE74      -0.1231
     84  CA        -4.4100   25.0200   62.4510 C.3    74  ILE74       0.1692
     85  C         -3.2960   25.4540   61.5460 C.2    74  ILE74       0.2592
     86  O         -3.5560   25.8110   60.3990 O.2    74  ILE74      -0.2718
     87  CB        -4.8340   26.1860   63.4060 C.3    74  ILE74       0.0266
     88  CG1       -6.1720   25.8580   64.0890 C.3    74  ILE74       0.0019
     89  CG2       -4.8840   27.5260   62.6210 C.3    74  ILE74       0.0020
     90  CD1       -7.4020   25.8730   63.2200 C.3    74  ILE74       0.0001
     91  N         -2.0600   25.4170   62.0240 N.am   75  ASP75      -0.1974
     92  CA        -0.9250   25.8130   61.2120 C.3    75  ASP75       0.1709
     93  C         -0.8350   24.9070   59.9950 C.2    75  ASP75       0.2293
     94  O         -0.5640   25.3640   58.8860 O.2    75  ASP75      -0.2864
     95  CB         0.3870   25.7420   62.0190 C.3    75  ASP75       0.1436
     96  CG         1.5350   26.3930   61.2820 C.2    75  ASP75       0.3671
     97  OD1        2.4750   25.6960   60.8220 O.co2  75  ASP75      -0.2456
     98  OD2        1.4750   27.6390   61.1200 O.co2  75  ASP75      -0.2456
     99  N          2.7520   15.6880   59.7020 N.3    84  ARG84      -0.1231
    100  CA         3.0760   16.2780   60.9880 C.3    84  ARG84       0.1694
    101  C          3.5370   15.1140   61.8840 C.2    84  ARG84       0.2591
    102  O          2.7740   14.1420   62.1220 O.2    84  ARG84      -0.2718
    103  CB         1.8510   16.9610   61.6150 C.3    84  ARG84       0.0321
    104  CG         2.0520   17.2800   63.0650 C.3    84  ARG84       0.0489
    105  CD         3.1290   18.3870   63.3150 C.3    84  ARG84       0.2205
    106  NE         2.7140   19.6830   62.7510 N.pl3  84  ARG84      -0.0865
    107  CZ         3.4320   20.8080   62.8090 C.cat  84  ARG84       0.5346
    108  NH1        4.6210   20.8430   63.4280 N.pl3  84  ARG84       0.1354
    109  NH2        2.9890   21.9030   62.1860 N.pl3  84  ARG84       0.1354
    110  N          4.7590   15.2340   62.3950 N.am   85  ARG85      -0.1980
    111  CA         5.3410   14.2180   63.2800 C.3    85  ARG85       0.1597
    112  C          5.4050   12.8350   62.6290 C.2    85  ARG85       0.2287
    113  O          5.2310   11.8170   63.3050 O.2    85  ARG85      -0.2864
    114  CB         4.5750   14.1070   64.6180 C.3    85  ARG85       0.0334
    115  CG         4.7170   15.3450   65.5160 C.3    85  ARG85       0.0492
    116  CD         3.7870   15.2930   66.7300 C.3    85  ARG85       0.2205
    117  NE         3.8530   16.5180   67.5380 N.pl3  85  ARG85      -0.0865
    118  CZ         2.9130   16.8670   68.4310 C.cat  85  ARG85       0.5346
    119  NH1        1.8600   16.0990   68.6040 N.pl3  85  ARG85       0.1354
    120  NH2        3.0220   17.9730   69.1450 N.pl3  85  ARG85       0.1354
    121  N         -9.1360   25.4840   71.9390 N.3   107  TYR107     -0.1241
    122  CA        -8.6880   26.7880   72.4550 C.3   107  TYR107      0.1605
    123  C         -9.5480   27.1950   73.6430 C.2   107  TYR107      0.2264
    124  O         -9.0250   27.6700   74.6380 O.2   107  TYR107     -0.2867
    125  CB        -8.8230   27.9330   71.4240 C.3   107  TYR107      0.0534
    126  CG        -7.9150   27.9200   70.2250 C.ar  107  TYR107     -0.0201
    127  CD1       -8.1200   28.8580   69.1950 C.ar  107  TYR107     -0.0009
    128  CD2       -6.8510   27.0170   70.1110 C.ar  107  TYR107     -0.0009
    129  CE1       -7.2900   28.9120   68.0800 C.ar  107  TYR107      0.0417
    130  CE2       -5.9940   27.0400   68.9760 C.ar  107  TYR107      0.0417
    131  CZ        -6.2300   28.0090   67.9660 C.ar  107  TYR107      0.1957
    132  OH        -5.3830   28.1190   66.8870 O.3   107  TYR107     -0.2866
    133  N         -3.0820   35.0870   73.5740 N.3   135  LEU135     -0.1245
    134  CA        -3.7850   34.4940   72.4090 C.3   135  LEU135      0.1561
    135  C         -3.8850   35.6140   71.3520 C.2   135  LEU135      0.2260
    136  O         -3.8090   35.3860   70.1490 O.2   135  LEU135     -0.2867
    137  CB        -5.1860   34.0290   72.8050 C.3   135  LEU135      0.0270
    138  CG        -5.1970   32.5210   73.1460 C.3   135  LEU135      0.0019
    139  CD1       -5.1000   31.7260   71.8190 C.3   135  LEU135      0.0001
    140  CD2       -4.0180   32.1570   74.1100 C.3   135  LEU135      0.0001
    141  N         -0.3750   35.8810   69.8220 N.3   138  LEU138     -0.1231
    142  CA        -0.1270   34.7130   68.9660 C.3   138  LEU138      0.1693
    143  C         -0.8100   34.9040   67.5990 C.2   138  LEU138      0.2592
    144  O         -0.2410   34.6470   66.5820 O.2   138  LEU138     -0.2718
    145  CB        -0.6790   33.4560   69.6580 C.3   138  LEU138      0.0284
    146  CG         0.2680   32.9970   70.8100 C.3   138  LEU138      0.0019
    147  CD1       -0.5080   32.1150   71.7950 C.3   138  LEU138      0.0001
    148  CD2        1.4620   32.1840   70.1980 C.3   138  LEU138      0.0001
    149  N         -2.0270   35.4260   67.5880 N.am  139  HIS139     -0.1976
    150  CA        -2.7400   35.5920   66.3290 C.3   139  HIS139      0.1656
    151  C         -2.1670   36.7740   65.5310 C.2   139  HIS139      0.2291
    152  O         -2.2040   36.7520   64.3040 O.2   139  HIS139     -0.2864
    153  CB        -4.2450   35.7090   66.5840 C.3   139  HIS139      0.0771
    154  CG        -4.9180   34.3940   66.8890 C.ar  139  HIS139      0.0820
    155  ND1       -4.9990   33.8640   68.1580 N.ar  139  HIS139     -0.2267
    156  CD2       -5.5070   33.4900   66.0710 C.ar  139  HIS139      0.1154
    157  CE1       -5.5890   32.6730   68.1080 C.ar  139  HIS139      0.1986
    158  NE2       -5.9070   32.4240   66.8490 N.ar  139  HIS139     -0.2212
    159  N          1.0310   35.0740   64.0510 N.3   142  GLN142     -0.1245
    160  CA         0.6080   34.1020   62.9990 C.3   142  GLN142      0.1566
    161  C         -0.0330   34.8570   61.8010 C.2   142  GLN142      0.2260
    162  O          0.1460   34.5340   60.6670 O.2   142  GLN142     -0.2867
    163  CB        -0.4190   33.1200   63.6080 C.3   142  GLN142      0.0367
    164  CG        -0.9480   32.0220   62.6120 C.3   142  GLN142      0.0905
    165  CD         0.1430   30.9830   62.2400 C.2   142  GLN142      0.2608
    166  OE1       -0.1670   29.8970   61.7290 O.2   142  GLN142     -0.2717
    167  NE2        1.3920   31.2950   62.5250 N.am  142  GLN142     -0.0878
    168  N          4.5980   34.7440   67.2920 N.3   169  LYS169     -0.1231
    169  CA         4.1610   33.4730   66.7820 C.3   169  LYS169      0.1693
    170  C          4.6690   32.2740   67.6070 C.2   169  LYS169      0.2592
    171  O          3.9090   31.3830   67.9600 O.2   169  LYS169     -0.2718
    172  CB         4.6640   33.2990   65.3340 C.3   169  LYS169      0.0285
    173  CG         4.1870   32.0170   64.6220 C.3   169  LYS169      0.0035
    174  CD         5.0150   31.7470   63.3350 C.3   169  LYS169      0.0206
    175  CE         4.8040   30.3190   62.7710 C.3   169  LYS169      0.1093
    176  NZ         4.0820   30.2480   61.4440 N.3   169  LYS169     -0.1314
    177  N          5.9690   32.2590   67.8960 N.am  170  THR170     -0.1953
    178  CA         6.5600   31.1300   68.5970 C.3   170  THR170      0.1897
    179  C          6.8600   31.5260   70.0480 C.2   170  THR170      0.2313
    180  O          6.5610   30.7840   70.9930 O.2   170  THR170     -0.2863
    181  CB         7.7940   30.6890   67.7800 C.3   170  THR170      0.1794
    182  OG1        7.3660   30.4450   66.4270 O.3   170  THR170     -0.2208
    183  CG2        8.4720   29.4220   68.3630 C.3   170  THR170      0.0378
    184  N          3.6070   31.4340   72.9670 N.3   173  LEU173     -0.1245
    185  CA         3.1120   30.3810   73.8840 C.3   173  LEU173      0.1561
    186  C          4.1270   30.1870   75.0400 C.2   173  LEU173      0.2260
    187  O          3.7740   29.7890   76.1430 O.2   173  LEU173     -0.2867
    188  CB         2.8780   29.0700   73.0530 C.3   173  LEU173      0.0270
    189  CG         2.3990   27.9190   73.9370 C.3   173  LEU173      0.0019
    190  CD1        1.1820   28.2930   74.7980 C.3   173  LEU173      0.0001
    191  CD2        2.0650   26.7410   73.0170 C.3   173  LEU173      0.0001
    192  N         14.2840   29.1650   69.0880 N.3   201  TYR201     -0.1227
    193  CA        13.5570   27.9400   68.7480 C.3   201  TYR201      0.1736
    194  C         13.0080   27.9890   67.3080 C.2   201  TYR201      0.2595
    195  O         13.1010   27.0090   66.5660 O.2   201  TYR201     -0.2718
    196  CB        12.4140   27.7570   69.7330 C.3   201  TYR201      0.0548
    197  CG        11.9670   26.3260   69.8860 C.ar  201  TYR201     -0.0200
    198  CD1       12.6900   25.4560   70.7230 C.ar  201  TYR201     -0.0009
    199  CD2       10.8590   25.8360   69.2070 C.ar  201  TYR201     -0.0009
    200  CE1       12.3140   24.1150   70.8820 C.ar  201  TYR201      0.0417
    201  CE2       10.4740   24.4810   69.3530 C.ar  201  TYR201      0.0417
    202  CZ        11.2340   23.6380   70.2130 C.ar  201  TYR201      0.1957
    203  OH        10.9280   22.3140   70.4150 O.3   201  TYR201     -0.2866
    204  N         12.4590   29.1230   66.9010 N.am  202  GLN202     -0.1979
    205  CA        11.8970   29.1960   65.5480 C.3   202  GLN202      0.1601
    206  C         12.9730   29.2480   64.4780 C.2   202  GLN202      0.2287
    207  O         12.8460   28.5910   63.4330 O.2   202  GLN202     -0.2864
    208  CB        10.9890   30.4300   65.4020 C.3   202  GLN202      0.0394
    209  CG        10.1850   30.4980   64.0640 C.3   202  GLN202      0.0908
    210  CD         9.3120   29.2460   63.8580 C.2   202  GLN202      0.2608
    211  OE1        8.4790   28.9280   64.6960 O.2   202  GLN202     -0.2717
    212  NE2        9.5250   28.5290   62.7530 N.am  202  GLN202     -0.0878
    213  N         14.2710   25.9480   64.0310 N.3   205  ASP205     -0.1239
    214  CA        13.3140   25.1220   63.2830 C.3   205  ASP205      0.1674
    215  C         13.3760   25.3990   61.7570 C.2   205  ASP205      0.2266
    216  O         13.2860   24.4750   60.9540 O.2   205  ASP205     -0.2867
    217  CB        11.8840   25.3600   63.8210 C.3   205  ASP205      0.1410
    218  CG        10.8380   24.5250   63.1020 C.2   205  ASP205      0.3668
    219  OD1       10.3940   24.9110   61.9890 O.co2 205  ASP205     -0.2456
    220  OD2       10.4570   23.4730   63.6550 O.co2 205  ASP205     -0.2456
@<TRIPOS>BOND
     1    94    93    2
     2    99   100    1
     3    93    92    1
     4    86    85    2
     5   162   161    2
     6    97    96   ar
     7   216   215    2
     8   100   103    1
     9   100   101    1
    10    98    96   ar
    11    92    95    1
    12    92    91    1
    13    96    95    1
    14   176   175    1
    15    85    91   am
    16    85    84    1
    17   103   104    1
    18   166   165    2
    19   215   214    1
    20   161   160    1
    21   101   102    2
    22   101   110   am
    23   219   218   ar
    24   109   107    1
    25   165   167   am
    26   165   164    1
    27   110   111    1
    28    84    83    1
    29    84    87    1
    30   164   163    1
    31    89    87    1
    32   112   111    1
    33   112   113    2
    34   106   107    2
    35   106   105    1
    36   212   210   am
    37   175   174    1
    38   107   108    1
    39    78    77    2
    40   160   163    1
    41   160   159    1
    42   104   105    1
    43   218   220   ar
    44   218   217    1
    45    90    88    1
    46   111   114    1
    47   214   217    1
    48   214   213    1
    49   174   173    1
    50    87    88    1
    51   207   206    2
    52   210   209    1
    53   210   211    2
    54    77    76    1
    55   209   208    1
    56   152   151    2
    57   206   205    1
    58   114   115    1
    59   173   172    1
    60    72    71    2
    61    76    79    1
    62    76    75    1
    63   172   169    1
    64   208   205    1
    65   115   116    1
    66   151   150    1
    67   205   204    1
    68    79    80    1
    69    71    75   am
    70    71    70    1
    71    82    80    1
    72   156   158   ar
    73   156   154   ar
    74   150   153    1
    75   150   149    1
    76   182   181    1
    77    20    19    1
    78   195   194    2
    79    80    81    1
    80   144   143    2
    81   153   154    1
    82   116   117    1
    83   169   168    1
    84   169   170    1
    85   158   157   ar
    86   132   131    1
    87   154   155   ar
    88   204   194   am
    89    70    73    1
    90    70    69    1
    91   194   193    1
    92   117   118    2
    93   149   143   am
    94   143   142    1
    95   170   177   am
    96   170   171    2
    97    73    74    1
    98   181   183    1
    99   181   178    1
   100    19    18    1
   101   177   178    1
   102   131   129   ar
   103   131   130   ar
   104   129   127   ar
   105   157   155   ar
   106   118   119    1
   107   118   120    1
   108   178   179    1
   109   193   192    1
   110   193   196    1
   111   142   145    1
   112   142   141    1
   113   130   128   ar
   114    62    61    2
   115    18    17    1
   116   127   126   ar
   117   199   201   ar
   118   199   197   ar
   119   201   202   ar
   120    67    68   ar
   121    67    65   ar
   122     9     8    1
   123     9    10    1
   124   145   146    1
   125    17    16    1
   126   196   197    1
   127   197   198   ar
   128     8     3   am
   129    68    66   ar
   130   179   180    2
   131    50    48    1
   132   128   126   ar
   133     1     7    1
   134     1     2    1
   135   136   135    2
   136   148   146    1
   137    61    60    1
   138   202   203    1
   139   202   200   ar
   140   126   125    1
   141    65    64   ar
   142     7     6    1
   143    54    53    2
   144    10    12   am
   145    10    11    2
   146    12    13    1
   147   198   200   ar
   148     3     2    1
   149     3     4    2
   150   146   147    1
   151    66    64   ar
   152    48    49    1
   153    48    47    2
   154     2     5    1
   155    64    63    1
   156    16    13    1
   157    60    63    1
   158    60    59    1
   159   135   134    1
   160     6     5    1
   161   125   122    1
   162    13    14    1
   163    53    59   am
   164    53    52    1
   165   139   138    1
   166   121   122    1
   167    47    46    1
   168   134   137    1
   169   134   133    1
   170   122   123    1
   171   137   138    1
   172    52    55    1
   173    52    51    1
   174   184   185    1
   175   191   189    1
   176   188   185    1
   177   188   189    1
   178    14    21   am
   179    14    15    2
   180   138   140    1
   181    46    45    1
   182    21    22    1
   183    58    56    1
   184    55    56    1
   185    33    34    1
   186    33    30    1
   187   123   124    2
   188   185   186    1
   189   189   190    1
   190    34    36   ar
   191    34    35   ar
   192    36    38   ar
   193    35    37   ar
   194    45    44    1
   195    38    39   ar
   196    29    30    1
   197    29    23   am
   198    56    57    1
   199    37    39   ar
   200    22    23    1
   201    22    25    1
   202    30    31    1
   203   186   187    2
   204    28    26   am
   205    23    24    2
   206    40    31   am
   207    40    41    1
   208    26    27    2
   209    26    25    1
   210    44    41    1
   211    31    32    2
   212    41    42    1
   213    42    43    2
