@<TRIPOS>MOLECULE
tmp/2e8xB00.pdb
 202 190 0 0 0
SMALL
GASTEIGER

@<TRIPOS>ATOM
      1  N         22.9730   36.6780   32.0960 N.3    70  HIS70      -0.1241
      2  CA        22.5740   35.3030   32.1730 C.3    70  HIS70       0.1621
      3  C         21.6950   34.9830   31.0020 C.2    70  HIS70       0.2264
      4  O         21.9750   34.0500   30.2840 O.2    70  HIS70      -0.2867
      5  CB        21.8390   35.0130   33.4920 C.3    70  HIS70       0.0745
      6  CG        21.2550   33.6360   33.5860 C.ar   70  HIS70       0.0817
      7  ND1       22.0030   32.5270   33.9200 N.ar   70  HIS70      -0.2268
      8  CD2       19.9850   33.1950   33.4220 C.ar   70  HIS70       0.1154
      9  CE1       21.2230   31.4620   33.9640 C.ar   70  HIS70       0.1986
     10  NE2       19.9920   31.8390   33.6680 N.ar   70  HIS70      -0.2212
     11  N         23.7070   35.2420   27.6130 N.3    73  SER73      -0.1202
     12  CA        24.6570   34.1840   27.3910 C.3    73  SER73       0.2020
     13  C         23.8680   32.9500   26.9810 C.2    73  SER73       0.2618
     14  O         24.3360   32.1950   26.1270 O.2    73  SER73      -0.2717
     15  CB        25.4410   33.9000   28.6370 C.3    73  SER73       0.2103
     16  OG        24.5510   33.3570   29.5930 O.3    73  SER73      -0.2182
     17  N         22.6700   32.7420   27.5470 N.am   74  LEU74      -0.1979
     18  CA        21.9020   31.5550   27.1620 C.3    74  LEU74       0.1596
     19  C         21.4110   31.6300   25.7120 C.2    74  LEU74       0.2287
     20  O         21.4080   30.6130   24.9930 O.2    74  LEU74      -0.2864
     21  CB        20.7010   31.2980   28.1170 C.3    74  LEU74       0.0297
     22  CG        20.8680   31.0660   29.6440 C.3    74  LEU74       0.0022
     23  CD1       19.4520   30.7550   30.2250 C.3    74  LEU74       0.0001
     24  CD2       21.8730   29.9080   29.9660 C.3    74  LEU74       0.0001
     25  N         22.8730   33.0300   23.2330 N.3    76  ILE76      -0.1231
     26  CA        24.0720   32.7070   22.4330 C.3    76  ILE76       0.1692
     27  C         24.4070   31.2240   22.5430 C.2    76  ILE76       0.2592
     28  O         24.6760   30.5700   21.5440 O.2    76  ILE76      -0.2718
     29  CB        25.3590   33.5350   22.9220 C.3    76  ILE76       0.0266
     30  CG1       25.1050   35.0360   22.7260 C.3    76  ILE76       0.0019
     31  CG2       26.6230   33.1370   22.0970 C.3    76  ILE76       0.0020
     32  CD1       24.7810   35.3910   21.2910 C.3    76  ILE76       0.0001
     33  N         24.4220   30.7090   23.7630 N.am   77  ASP77      -0.1960
     34  CA        24.7390   29.3150   23.9890 C.3    77  ASP77       0.1840
     35  C         23.8260   28.3880   23.2050 C.2    77  ASP77       0.2622
     36  O         24.3180   27.3850   22.6540 O.2    77  ASP77      -0.2715
     37  CB        24.6980   28.9550   25.4850 C.3    77  ASP77       0.1450
     38  CG        25.0790   27.4970   25.7600 C.2    77  ASP77       0.3671
     39  OD1       24.1870   26.6360   25.8110 O.co2  77  ASP77      -0.2456
     40  OD2       26.2700   27.1980   25.9140 O.co2  77  ASP77      -0.2456
     41  N         22.5360   28.7310   23.0900 N.am   78  ASP78      -0.1971
     42  CA        21.6340   27.8650   22.3360 C.3    78  ASP78       0.1709
     43  C         21.9380   27.9450   20.8460 C.2    78  ASP78       0.2293
     44  O         21.7050   26.9820   20.1020 O.2    78  ASP78      -0.2864
     45  CB        20.1510   28.1660   22.6110 C.3    78  ASP78       0.1436
     46  CG        19.7180   27.8010   24.0550 C.2    78  ASP78       0.3671
     47  OD1       20.2270   26.7640   24.6050 O.co2  78  ASP78      -0.2456
     48  OD2       18.8630   28.5430   24.6280 O.co2  78  ASP78      -0.2456
     49  N         25.0410   28.4010   19.7010 N.3    80  GLU80      -0.1231
     50  CA        26.3270   27.6840   19.6680 C.3    80  GLU80       0.1699
     51  C         26.1250   26.1750   19.8760 C.2    80  GLU80       0.2592
     52  O         26.8950   25.3600   19.3740 O.2    80  GLU80      -0.2718
     53  CB        27.2460   28.2220   20.7630 C.3    80  GLU80       0.0402
     54  CG        27.6740   29.6580   20.4620 C.3    80  GLU80       0.1161
     55  CD        28.4300   30.3520   21.6180 C.2    80  GLU80       0.3649
     56  OE1       29.0900   31.3820   21.3040 O.co2  80  GLU80      -0.2457
     57  OE2       28.3790   29.8870   22.7990 O.co2  80  GLU80      -0.2457
     58  N         25.0630   25.7960   20.6020 N.am   81  ASP81      -0.1974
     59  CA        24.8810   24.3810   20.8430 C.3    81  ASP81       0.1709
     60  C         23.7960   23.7980   19.9570 C.2    81  ASP81       0.2293
     61  O         23.4570   22.6270   20.0910 O.2    81  ASP81      -0.2864
     62  CB        24.6150   24.1400   22.3440 C.3    81  ASP81       0.1436
     63  CG        25.7600   24.6560   23.2130 C.2    81  ASP81       0.3671
     64  OD1       26.8400   24.9880   22.6560 O.co2  81  ASP81      -0.2456
     65  OD2       25.6040   24.7540   24.4450 O.co2  81  ASP81      -0.2456
     66  N         14.7130   25.1140   25.2720 N.3    86  ARG86      -0.1245
     67  CA        15.2590   25.6600   26.5170 C.3    86  ARG86       0.1563
     68  C         14.0710   25.8120   27.4950 C.2    86  ARG86       0.2260
     69  O         13.0220   26.3530   27.1420 O.2    86  ARG86      -0.2867
     70  CB        15.9310   27.0070   26.2650 C.3    86  ARG86       0.0307
     71  CG        16.1430   27.8630   27.4990 C.3    86  ARG86       0.0489
     72  CD        17.3360   27.4560   28.2840 C.3    86  ARG86       0.2205
     73  NE        18.5470   27.6070   27.5020 N.pl3  86  ARG86      -0.0865
     74  CZ        19.7560   27.3170   27.9550 C.cat  86  ARG86       0.5346
     75  NH1       19.9100   26.8790   29.1960 N.pl3  86  ARG86       0.1354
     76  NH2       20.7980   27.4040   27.1520 N.pl3  86  ARG86       0.1354
     77  N         24.4460   42.6240   26.3090 N.3   109  TYR109     -0.1241
     78  CA        25.6890   42.5520   27.0920 C.3   109  TYR109      0.1605
     79  C         26.1080   43.9890   27.3600 C.2   109  TYR109      0.2264
     80  O         26.5180   44.3290   28.4540 O.2   109  TYR109     -0.2867
     81  CB        26.8320   41.9250   26.3000 C.3   109  TYR109      0.0534
     82  CG        26.8590   40.4380   26.1800 C.ar  109  TYR109     -0.0201
     83  CD1       27.7080   39.8350   25.2620 C.ar  109  TYR109     -0.0009
     84  CD2       26.0860   39.6420   26.9660 C.ar  109  TYR109     -0.0009
     85  CE1       27.7880   38.4400   25.1240 C.ar  109  TYR109      0.0417
     86  CE2       26.1490   38.2410   26.8500 C.ar  109  TYR109      0.0417
     87  CZ        27.0090   37.6560   25.9160 C.ar  109  TYR109      0.1957
     88  OH        27.0950   36.2990   25.7540 O.3   109  TYR109     -0.2866
     89  N         34.1290   33.9550   31.2430 N.3   140  LEU140     -0.1231
     90  CA        32.9760   33.2310   30.7400 C.3   140  LEU140      0.1693
     91  C         33.2820   32.8330   29.2600 C.2   140  LEU140      0.2592
     92  O         33.1320   31.6810   28.8590 O.2   140  LEU140     -0.2718
     93  CB        31.7420   34.1250   30.8000 C.3   140  LEU140      0.0284
     94  CG        30.4330   33.5970   30.2110 C.3   140  LEU140      0.0019
     95  CD1       29.9180   32.4050   30.9780 C.3   140  LEU140      0.0001
     96  CD2       29.3900   34.7330   30.3430 C.3   140  LEU140      0.0001
     97  N         33.7750   33.7860   28.4960 N.am  141  HIS141     -0.1976
     98  CA        34.0910   33.5030   27.1240 C.3   141  HIS141      0.1656
     99  C         35.2380   32.5110   26.9150 C.2   141  HIS141      0.2291
    100  O         35.2000   31.7350   25.9370 O.2   141  HIS141     -0.2864
    101  CB        34.3130   34.8040   26.3810 C.3   141  HIS141      0.0771
    102  CG        33.0360   35.5480   26.1520 C.ar  141  HIS141      0.0820
    103  ND1       32.3050   35.4450   24.9850 N.ar  141  HIS141     -0.2267
    104  CD2       32.3230   36.3600   26.9680 C.ar  141  HIS141      0.1154
    105  CE1       31.2040   36.1670   25.0890 C.ar  141  HIS141      0.1986
    106  NE2       31.1940   36.7380   26.2820 N.ar  141  HIS141     -0.2212
    107  N         33.6640   29.0770   27.7590 N.3   144  GLN144     -0.1245
    108  CA        32.6920   28.6750   26.7080 C.3   144  GLN144      0.1566
    109  C         33.5130   28.3190   25.4550 C.2   144  GLN144      0.2260
    110  O         33.2220   27.3730   24.7180 O.2   144  GLN144     -0.2867
    111  CB        31.7310   29.8480   26.3880 C.3   144  GLN144      0.0367
    112  CG        30.6910   29.5620   25.3170 C.3   144  GLN144      0.0905
    113  CD        29.4790   28.7630   25.8280 C.2   144  GLN144      0.2608
    114  OE1       28.4240   28.7310   25.1790 O.2   144  GLN144     -0.2717
    115  NE2       29.6310   28.1090   26.9690 N.am  144  GLN144     -0.0878
    116  N         34.9680   24.8980   25.9120 N.3   147  ASP147     -0.1239
    117  CA        33.8940   23.9070   25.8870 C.3   147  ASP147      0.1674
    118  C         33.5660   23.5980   24.3860 C.2   147  ASP147      0.2266
    119  O         33.5350   22.4340   23.9340 O.2   147  ASP147     -0.2867
    120  CB        32.6770   24.4570   26.6480 C.3   147  ASP147      0.1410
    121  CG        31.6140   23.3590   27.0300 C.2   147  ASP147      0.3668
    122  OD1       31.9360   22.1660   27.2310 O.co2 147  ASP147     -0.2456
    123  OD2       30.4150   23.7210   27.1690 O.co2 147  ASP147     -0.2456
    124  N         33.9570   29.0700   32.6580 N.3   171  LYS171     -0.1182
    125  CA        32.6150   29.0630   32.1030 C.3   171  LYS171      0.1909
    126  C         31.4750   29.2720   33.1100 C.2   171  LYS171      0.2635
    127  O         30.7520   30.2700   33.0100 O.2   171  LYS171     -0.2714
    128  CB        32.3540   27.7780   31.2610 C.2   171  LYS171     -0.0028
    129  CG        30.9530   27.7090   30.5250 C.2   171  LYS171     -0.0272
    130  CD        30.6720   26.3840   29.7720 C.3   171  LYS171      0.0462
    131  CE        30.1510   25.3200   30.7210 C.3   171  LYS171      0.1140
    132  NZ        29.5470   24.0800   30.1320 N.3   171  LYS171     -0.1310
    133  N         31.2950   28.3550   34.0600 N.am  172  THR172     -0.1950
    134  CA        30.2110   28.5000   35.0180 C.3   172  THR172      0.1897
    135  C         30.5760   29.4410   36.1930 C.2   172  THR172      0.2313
    136  O         29.7100   30.0540   36.7970 O.2   172  THR172     -0.2863
    137  CB        29.7730   27.1280   35.5240 C.3   172  THR172      0.1794
    138  OG1       29.7250   26.2180   34.4160 O.3   172  THR172     -0.2208
    139  CG2       28.3710   27.2040   36.1150 C.3   172  THR172      0.0378
    140  N         29.8280   34.0330   35.8030 N.3   175  LEU175     -0.1245
    141  CA        28.6680   34.7920   36.2830 C.3   175  LEU175      0.1561
    142  C         28.4120   34.7030   37.7770 C.2   175  LEU175      0.2260
    143  O         27.9180   35.6480   38.3750 O.2   175  LEU175     -0.2867
    144  CB        27.3960   34.4010   35.5120 C.3   175  LEU175      0.0270
    145  CG        27.3780   34.7370   34.0090 C.3   175  LEU175      0.0019
    146  CD1       25.9240   34.6670   33.4770 C.3   175  LEU175      0.0001
    147  CD2       27.9960   36.1630   33.7690 C.3   175  LEU175      0.0001
    148  N         26.9080   23.1120   40.3090 N.3   205  TYR205     -0.1227
    149  CA        25.8420   23.4120   39.3730 C.3   205  TYR205      0.1736
    150  C         26.0710   22.8070   37.9740 C.2   205  TYR205      0.2595
    151  O         25.1550   22.1980   37.3900 O.2   205  TYR205     -0.2718
    152  CB        25.7090   24.9210   39.2740 C.3   205  TYR205      0.0548
    153  CG        24.6920   25.3530   38.2680 C.ar  205  TYR205     -0.0200
    154  CD1       23.3380   25.2640   38.5470 C.ar  205  TYR205     -0.0009
    155  CD2       25.0900   25.7850   36.9890 C.ar  205  TYR205     -0.0009
    156  CE1       22.3840   25.5940   37.5850 C.ar  205  TYR205      0.0417
    157  CE2       24.1440   26.1030   36.0120 C.ar  205  TYR205      0.0417
    158  CZ        22.7910   26.0060   36.3210 C.ar  205  TYR205      0.1957
    159  OH        21.8520   26.3110   35.3590 O.3   205  TYR205     -0.2866
    160  N         27.2900   22.9450   37.4320 N.am  206  GLN206     -0.1979
    161  CA        27.5690   22.4440   36.0900 C.3   206  GLN206      0.1601
    162  C         27.5740   20.8920   35.9820 C.2   206  GLN206      0.2287
    163  O         27.0370   20.3300   35.0280 O.2   206  GLN206     -0.2864
    164  CB        28.8850   23.0190   35.5410 C.3   206  GLN206      0.0394
    165  CG        29.0770   22.6390   34.0490 C.3   206  GLN206      0.0908
    166  CD        27.9610   23.2630   33.1840 C.2   206  GLN206      0.2608
    167  OE1       27.8250   24.4940   33.1430 O.2   206  GLN206     -0.2717
    168  NE2       27.1330   22.4220   32.5390 N.am  206  GLN206     -0.0878
    169  N         24.1550   19.6880   36.1180 N.3   209  ASP209     -0.1239
    170  CA        23.4550   19.9320   34.8600 C.3   209  ASP209      0.1674
    171  C         23.8960   18.7830   33.9160 C.2   209  ASP209      0.2266
    172  O         23.0410   18.1150   33.2930 O.2   209  ASP209     -0.2867
    173  CB        23.8440   21.3200   34.2900 C.3   209  ASP209      0.1410
    174  CG        23.2100   21.6200   32.9160 C.2   209  ASP209      0.3668
    175  OD1       21.9680   21.6400   32.7990 O.co2 209  ASP209     -0.2456
    176  OD2       23.9580   21.8550   31.9400 O.co2 209  ASP209     -0.2456
    177  N         22.6690   16.6200   25.2830 N.3   224  ASP224     -0.1239
    178  CA        24.1390   16.6760   25.3770 C.3   224  ASP224      0.1674
    179  C         24.8500   15.6700   24.4210 C.2   224  ASP224      0.2266
    180  O         25.8710   15.9940   23.8290 O.2   224  ASP224     -0.2867
    181  CB        24.5570   16.4160   26.8130 C.3   224  ASP224      0.1410
    182  CG        24.1990   17.5650   27.7310 C.2   224  ASP224      0.3668
    183  OD1       23.3690   18.4060   27.3200 O.co2 224  ASP224     -0.2456
    184  OD2       24.7510   17.6270   28.8570 O.co2 224  ASP224     -0.2456
    185  N         24.4670   16.8510   20.9740 N.3   227  GLU227     -0.1245
    186  CA        25.3490   17.9860   20.8630 C.3   227  GLU227      0.1567
    187  C         26.8180   17.5470   20.7720 C.2   227  GLU227      0.2260
    188  O         27.6240   18.2650   20.1600 O.2   227  GLU227     -0.2867
    189  CB        25.1510   18.9420   22.0630 C.3   227  GLU227      0.0388
    190  CG        25.9540   20.2090   21.9410 C.3   227  GLU227      0.1160
    191  CD        26.0740   21.0050   23.2520 C.2   227  GLU227      0.3649
    192  OE1       25.1080   20.9120   24.0570 O.co2 227  GLU227     -0.2457
    193  OE2       27.0810   21.7220   23.4670 O.co2 227  GLU227     -0.2457
    194  N         28.8400   16.9710   23.3810 N.3   229  LYS229     -0.1245
    195  CA        29.4560   17.6570   24.5020 C.3   229  LYS229      0.1561
    196  C         30.3940   16.8280   25.4290 C.2   229  LYS229      0.2260
    197  O         30.0650   15.6840   25.8360 O.2   229  LYS229     -0.2867
    198  CB        28.2910   18.2420   25.3100 C.3   229  LYS229      0.0271
    199  CG        28.6320   19.1350   26.3870 C.3   229  LYS229      0.0035
    200  CD        27.3540   19.6210   27.0060 C.3   229  LYS229      0.0206
    201  CE        27.6660   20.4890   28.2410 C.3   229  LYS229      0.1093
    202  NZ        26.4020   20.9720   28.8360 N.3   229  LYS229     -0.1314
@<TRIPOS>BOND
     1    52    51    2
     2    50    49    1
     3    50    51    1
     4    50    53    1
     5    51    58   am
     6    60    61    2
     7    60    59    1
     8    44    43    2
     9   188   187    2
    10    54    53    1
    11    54    55    1
    12    58    59    1
    13   187   186    1
    14    59    62    1
    15    43    42    1
    16   186   185    1
    17   186   189    1
    18    32    30    1
    19    56    55   ar
    20    28    27    2
    21    55    57   ar
    22   190   189    1
    23   190   191    1
    24    31    29    1
    25    42    45    1
    26    42    41    1
    27    62    63    1
    28    26    27    1
    29    26    29    1
    30    26    25    1
    31    27    33   am
    32    45    46    1
    33    36    35    2
    34    64    63   ar
    35    30    29    1
    36    41    35   am
    37    35    34    1
    38    63    65   ar
    39   191   193   ar
    40   191   192   ar
    41   194   195    1
    42    33    34    1
    43   180   179    2
    44   119   118    2
    45    34    37    1
    46    46    47   ar
    47    46    48   ar
    48   118   117    1
    49   179   178    1
    50   195   198    1
    51   195   196    1
    52   110   109    2
    53   103   105   ar
    54   103   102   ar
    55    20    19    2
    56   105   106   ar
    57    85    83   ar
    58    85    87   ar
    59   114   113    2
    60    83    82   ar
    61    66    67    1
    62   177   178    1
    63   198   199    1
    64   112   113    1
    65   112   111    1
    66   178   181    1
    67   196   197    2
    68   109   108    1
    69    37    38    1
    70    19    18    1
    71    88    87    1
    72    38    39   ar
    73    38    40   ar
    74   113   115   am
    75   117   116    1
    76   117   120    1
    77    87    86   ar
    78   100    99    2
    79    14    13    2
    80   102   101    1
    81   102   104   ar
    82    82    81    1
    83    82    84   ar
    84    70    67    1
    85    70    71    1
    86   106   104   ar
    87    81    78    1
    88    77    78    1
    89   101    98    1
    90   199   200    1
    91   111   108    1
    92    67    68    1
    93   120   121    1
    94   108   107    1
    95   181   182    1
    96    86    84   ar
    97    99    98    1
    98    13    12    1
    99    13    17   am
   100   200   201    1
   101   121   123   ar
   102   121   122   ar
   103    78    79    1
   104    98    97    1
   105    69    68    2
   106    76    74    1
   107    18    17    1
   108    18    21    1
   109   183   182   ar
   110    79    80    2
   111    12    11    1
   112    12    15    1
   113    71    72    1
   114    73    74    2
   115    73    72    1
   116   182   184   ar
   117    74    75    1
   118    21    22    1
   119   201   202    1
   120    97    91   am
   121    15    16    1
   122    92    91    2
   123    91    90    1
   124    22    24    1
   125    22    23    1
   126   130   129    1
   127   130   131    1
   128   132   131    1
   129    94    96    1
   130    94    93    1
   131    94    95    1
   132     4     3    2
   133   129   128    2
   134    90    93    1
   135    90    89    1
   136     3     2    1
   137   128   125    1
   138   176   174   ar
   139     1     2    1
   140   125   124    1
   141   125   126    1
   142     2     5    1
   143   168   166   am
   144   175   174   ar
   145   174   173    1
   146   127   126    2
   147   126   133   am
   148   167   166    2
   149   166   165    1
   150   172   171    2
   151     8     6   ar
   152     8    10   ar
   153   146   145    1
   154     5     6    1
   155     6     7   ar
   156    10     9   ar
   157   147   145    1
   158   171   170    1
   159     7     9   ar
   160   145   144    1
   161   165   164    1
   162   133   134    1
   163   173   170    1
   164   138   137    1
   165   170   169    1
   166   134   137    1
   167   134   135    1
   168   163   162    2
   169   159   158    1
   170   144   141    1
   171   137   139    1
   172   164   161    1
   173   140   141    1
   174   162   161    1
   175   157   158   ar
   176   157   155   ar
   177   161   160    1
   178   135   136    2
   179   141   142    1
   180   158   156   ar
   181   155   153   ar
   182   151   150    2
   183   160   150   am
   184   156   154   ar
   185   142   143    2
   186   150   149    1
   187   153   154   ar
   188   153   152    1
   189   152   149    1
   190   149   148    1
