@<TRIPOS>MOLECULE
tmp/2e8zB00.pdb
 143 137 0 0 0
SMALL
GASTEIGER

@<TRIPOS>ATOM
      1  N        130.0320   65.3040  138.0530 N.3   370  THR370     -0.1218
      2  CA       129.4710   66.5900  138.4470 C.3   370  THR370      0.1862
      3  C        130.3660   67.7040  137.9330 C.2   370  THR370      0.2287
      4  O        129.9030   68.8130  137.6640 O.2   370  THR370     -0.2866
      5  CB       129.3610   66.7250  139.9860 C.3   370  THR370      0.1770
      6  OG1      130.6480   66.5240  140.5840 O.3   370  THR370     -0.2211
      7  CG2      128.3700   65.7070  140.5460 C.3   370  THR370      0.0375
      8  N        121.7520   68.6330  139.9210 N.3   407  LEU407     -0.1245
      9  CA       122.3370   67.5420  139.1410 C.3   407  LEU407      0.1561
     10  C        121.6670   66.1990  139.4290 C.2   407  LEU407      0.2260
     11  O        122.3210   65.2000  139.7460 O.2   407  LEU407     -0.2867
     12  CB       123.8500   67.4590  139.3860 C.3   407  LEU407      0.0270
     13  CG       124.6180   68.7430  139.0220 C.3   407  LEU407      0.0019
     14  CD1      126.1080   68.5270  139.2570 C.3   407  LEU407      0.0001
     15  CD2      124.3640   69.1200  137.5550 C.3   407  LEU407      0.0001
     16  N        117.3800   68.8510  137.6700 N.3   435  GLU435     -0.1245
     17  CA       117.9870   68.9340  136.3540 C.3   435  GLU435      0.1567
     18  C        118.5740   67.5740  135.9910 C.2   435  GLU435      0.2260
     19  O        119.6350   67.1840  136.4820 O.2   435  GLU435     -0.2867
     20  CB       119.0600   70.0250  136.3450 C.3   435  GLU435      0.0388
     21  CG       120.0100   69.9680  137.5170 C.3   435  GLU435      0.1160
     22  CD       120.8750   71.2150  137.6370 C.2   435  GLU435      0.3649
     23  OE1      121.7550   71.2280  138.5270 O.co2 435  GLU435     -0.2457
     24  OE2      120.6720   72.1760  136.8460 O.co2 435  GLU435     -0.2457
     25  N        120.2990   66.3210  133.5920 N.3   437  TRP437     -0.1227
     26  CA       121.2600   66.4020  132.4950 C.3   437  TRP437      0.1737
     27  C        121.9970   65.0650  132.3940 C.2   437  TRP437      0.2595
     28  O        122.2060   64.3840  133.4020 O.2   437  TRP437     -0.2718
     29  CB       122.2850   67.5130  132.7590 C.3   437  TRP437      0.0564
     30  CG       121.7040   68.8670  133.1050 C.ar  437  TRP437      0.0003
     31  CD1      122.2480   69.7910  133.9540 C.ar  437  TRP437      0.0946
     32  CD2      120.4890   69.4510  132.6050 C.ar  437  TRP437      0.0152
     33  NE1      121.4510   70.9070  134.0180 N.ar  437  TRP437     -0.2442
     34  CE2      120.3650   70.7290  133.2020 C.ar  437  TRP437      0.0810
     35  CE3      119.4940   69.0210  131.7110 C.ar  437  TRP437      0.0012
     36  CZ2      119.2860   71.5830  132.9360 C.ar  437  TRP437      0.0191
     37  CZ3      118.4210   69.8720  131.4450 C.ar  437  TRP437      0.0001
     38  CH2      118.3280   71.1410  132.0590 C.ar  437  TRP437      0.0015
     39  N        122.3810   64.6790  131.1800 N.am  438  ASP438     -0.1960
     40  CA       123.1160   63.4370  131.0020 C.3   438  ASP438      0.1840
     41  C        124.5800   63.7550  131.3090 C.2   438  ASP438      0.2621
     42  O        125.2480   64.4440  130.5390 O.2   438  ASP438     -0.2715
     43  CB       122.9510   62.9240  129.5690 C.3   438  ASP438      0.1450
     44  CG       123.6830   61.6130  129.3280 C.2   438  ASP438      0.3671
     45  OD1      124.0200   60.9240  130.3160 O.co2 438  ASP438     -0.2456
     46  OD2      123.9120   61.2670  128.1470 O.co2 438  ASP438     -0.2456
     47  N        125.0730   63.2680  132.4450 N.am  439  LEU439     -0.1977
     48  CA       126.4490   63.5440  132.8430 C.3   439  LEU439      0.1596
     49  C        127.3310   62.3030  132.8800 C.2   439  LEU439      0.2287
     50  O        126.8550   61.1860  133.0860 O.2   439  LEU439     -0.2864
     51  CB       126.4600   64.2400  134.2050 C.3   439  LEU439      0.0297
     52  CG       125.5720   65.4900  134.3140 C.3   439  LEU439      0.0022
     53  CD1      125.5430   65.9660  135.7560 C.3   439  LEU439      0.0001
     54  CD2      126.0870   66.5900  133.4030 C.3   439  LEU439      0.0001
     55  N        115.0120   71.5640  129.1010 N.3   465  ASP465     -0.1239
     56  CA       116.0030   72.3160  128.3320 C.3   465  ASP465      0.1674
     57  C        115.5680   72.5320  126.8860 C.2   465  ASP465      0.2266
     58  O        115.8820   73.5650  126.2860 O.2   465  ASP465     -0.2867
     59  CB       117.3730   71.6180  128.3590 C.3   465  ASP465      0.1410
     60  CG       117.3230   70.2030  127.7990 C.2   465  ASP465      0.3668
     61  OD1      118.3580   69.7330  127.2850 O.co2 465  ASP465     -0.2456
     62  OD2      116.2570   69.5540  127.8790 O.co2 465  ASP465     -0.2456
     63  N        113.2050   75.4280  126.8700 N.3   468  ARG468     -0.1231
     64  CA       114.0180   76.5850  127.2320 C.3   468  ARG468      0.1694
     65  C        114.7320   77.1740  126.0050 C.2   468  ARG468      0.2592
     66  O        114.5270   78.3370  125.6460 O.2   468  ARG468     -0.2718
     67  CB       115.0600   76.1650  128.2790 C.3   468  ARG468      0.0321
     68  CG       116.0230   77.2670  128.7500 C.3   468  ARG468      0.0489
     69  CD       117.2510   76.6490  129.4360 C.3   468  ARG468      0.2205
     70  NE       118.1240   75.9730  128.4730 N.pl3 468  ARG468     -0.0865
     71  CZ       119.0440   75.0610  128.7860 C.cat 468  ARG468      0.5346
     72  NH1      119.2190   74.7000  130.0500 N.pl3 468  ARG468      0.1354
     73  NH2      119.7990   74.5150  127.8340 N.pl3 468  ARG468      0.1354
     74  N        115.5650   76.3610  125.3610 N.am  469  ASP469     -0.1974
     75  CA       116.3230   76.8080  124.1980 C.3   469  ASP469      0.1709
     76  C        115.4730   77.1180  122.9690 C.2   469  ASP469      0.2293
     77  O        115.8480   77.9650  122.1590 O.2   469  ASP469     -0.2864
     78  CB       117.4030   75.7800  123.8510 C.3   469  ASP469      0.1436
     79  CG       118.5420   75.7690  124.8640 C.2   469  ASP469      0.3671
     80  OD1      119.4130   74.8790  124.7740 O.co2 469  ASP469     -0.2456
     81  OD2      118.5700   76.6510  125.7490 O.co2 469  ASP469     -0.2456
     82  N        119.6730   78.6000  121.9060 N.3   474  ASN474     -0.1240
     83  CA       120.7120   77.7890  122.5350 C.3   474  ASN474      0.1653
     84  C        121.3820   78.6120  123.6330 C.2   474  ASN474      0.2266
     85  O        121.7960   79.7430  123.3920 O.2   474  ASN474     -0.2867
     86  CB       121.7450   77.3640  121.4830 C.3   474  ASN474      0.1155
     87  CG       122.7550   76.3710  122.0240 C.2   474  ASN474      0.2627
     88  OD1      123.5320   76.6830  122.9260 O.2   474  ASN474     -0.2716
     89  ND2      122.7440   75.1620  121.4760 N.am  474  ASN474     -0.0877
     90  N        124.2340   77.8920  125.2000 N.3   476  PHE476     -0.1227
     91  CA       125.6910   77.8550  125.1230 C.3   476  PHE476      0.1736
     92  C        126.3120   78.5790  123.9250 C.2   476  PHE476      0.2595
     93  O        127.5290   78.5710  123.7450 O.2   476  PHE476     -0.2718
     94  CB       126.1590   76.4000  125.1990 C.3   476  PHE476      0.0547
     95  CG       125.6400   75.6760  126.4110 C.ar  476  PHE476     -0.0202
     96  CD1      124.5240   74.8500  126.3220 C.ar  476  PHE476     -0.0042
     97  CD2      126.2260   75.8770  127.6600 C.ar  476  PHE476     -0.0042
     98  CE1      123.9970   74.2360  127.4610 C.ar  476  PHE476     -0.0003
     99  CE2      125.7060   75.2690  128.8050 C.ar  476  PHE476     -0.0003
    100  CZ       124.5900   74.4480  128.7040 C.ar  476  PHE476     -0.0000
    101  N        125.4690   79.2080  123.1140 N.am  477  HIS477     -0.1975
    102  CA       125.9220   79.9800  121.9620 C.3   477  HIS477      0.1656
    103  C        125.3050   81.3560  122.1240 C.2   477  HIS477      0.2291
    104  O        124.1690   81.5980  121.7200 O.2   477  HIS477     -0.2864
    105  CB       125.4610   79.3380  120.6560 C.3   477  HIS477      0.0771
    106  CG       126.2730   78.1480  120.2530 C.ar  477  HIS477      0.0820
    107  ND1      127.5890   78.2460  119.8570 N.ar  477  HIS477     -0.2267
    108  CD2      125.9580   76.8320  120.1920 C.ar  477  HIS477      0.1154
    109  CE1      128.0500   77.0420  119.5670 C.ar  477  HIS477      0.1986
    110  NE2      127.0800   76.1670  119.7620 N.ar  477  HIS477     -0.2212
    111  N        121.3280   79.7520  136.7920 N.3   525  ASP525     -0.1225
    112  CA       122.4060   79.3240  135.8980 C.3   525  ASP525      0.1805
    113  C        122.3720   80.0290  134.5460 C.2   525  ASP525      0.2597
    114  O        121.2990   80.3210  134.0210 O.2   525  ASP525     -0.2718
    115  CB       122.3340   77.8160  135.6470 C.3   525  ASP525      0.1424
    116  CG       122.9040   77.0060  136.7860 C.2   525  ASP525      0.3668
    117  OD1      122.1950   76.1050  137.2890 O.co2 525  ASP525     -0.2456
    118  OD2      124.0650   77.2650  137.1690 O.co2 525  ASP525     -0.2456
    119  N        123.5590   80.2830  133.9930 N.am  526  ASN526     -0.1974
    120  CA       123.7220   80.9280  132.6890 C.3   526  ASN526      0.1688
    121  C        123.2770   82.3910  132.6720 C.2   526  ASN526      0.2292
    122  O        122.8530   82.9320  133.6910 O.2   526  ASN526     -0.2864
    123  CB       122.9480   80.1470  131.6200 C.3   526  ASN526      0.1181
    124  CG       123.1440   78.6460  131.7370 C.2   526  ASN526      0.2629
    125  OD1      122.2150   77.9160  132.0800 O.2   526  ASN526     -0.2716
    126  ND2      124.3530   78.1800  131.4630 N.am  526  ASN526     -0.0877
    127  N        127.9190   85.4090  133.0070 N.3   579  GLU579     -0.1231
    128  CA       127.2980   84.1450  132.6260 C.3   579  GLU579      0.1699
    129  C        127.0830   83.1420  133.7630 C.2   579  GLU579      0.2592
    130  O        126.0580   82.4690  133.8200 O.2   579  GLU579     -0.2718
    131  CB       128.1360   83.4770  131.5380 C.3   579  GLU579      0.0402
    132  CG       127.4710   82.2630  130.9120 C.3   579  GLU579      0.1161
    133  CD       128.3590   81.5850  129.8950 C.2   579  GLU579      0.3649
    134  OE1      129.0380   82.3100  129.1340 O.co2 579  GLU579     -0.2457
    135  OE2      128.3720   80.3350  129.8460 O.co2 579  GLU579     -0.2457
    136  N        128.0600   83.0380  134.6530 N.am  580  ASN580     -0.1974
    137  CA       128.0050   82.0990  135.7640 C.3   580  ASN580      0.1688
    138  C        128.4150   82.8460  137.0290 C.2   580  ASN580      0.2292
    139  O        129.5770   82.8160  137.4300 O.2   580  ASN580     -0.2864
    140  CB       128.9770   80.9630  135.4760 C.3   580  ASN580      0.1181
    141  CG       129.0940   79.9980  136.6210 C.2   580  ASN580      0.2629
    142  OD1      129.9430   79.1020  136.6060 O.2   580  ASN580     -0.2716
    143  ND2      128.2420   80.1640  137.6250 N.am  580  ASN580     -0.0877
@<TRIPOS>BOND
     1   109   110   ar
     2   109   107   ar
     3   110   108   ar
     4   107   106   ar
     5   108   106   ar
     6   106   105    1
     7   105   102    1
     8    89    87   am
     9    86    87    1
    10    86    83    1
    11   104   103    2
    12    82    83    1
    13   102   103    1
    14   102   101    1
    15    87    88    2
    16    77    76    2
    17    83    84    1
    18    76    75    1
    19   101    92   am
    20    85    84    2
    21    93    92    2
    22    78    75    1
    23    78    79    1
    24    92    91    1
    25    75    74    1
    26    80    79   ar
    27    79    81   ar
    28    91    94    1
    29    91    90    1
    30    94    95    1
    31    74    65   am
    32    66    65    2
    33    65    64    1
    34    58    57    2
    35    96    95   ar
    36    96    98   ar
    37    95    97   ar
    38    63    64    1
    39    57    56    1
    40    64    67    1
    41    61    60   ar
    42    98   100   ar
    43    97    99   ar
    44    60    62   ar
    45    60    59    1
    46    73    71    1
    47    46    44   ar
    48    67    68    1
    49    56    59    1
    50    56    55    1
    51    70    71    2
    52    70    69    1
    53   100    99   ar
    54    68    69    1
    55    71    72    1
    56   134   133   ar
    57    44    43    1
    58    44    45   ar
    59    43    40    1
    60   135   133   ar
    61   133   132    1
    62    42    41    2
    63   132   131    1
    64    40    39    1
    65    40    41    1
    66    39    27   am
    67    41    47   am
    68    37    35   ar
    69    37    38   ar
    70   126   124   am
    71   131   128    1
    72   123   124    1
    73   123   120    1
    74    35    32   ar
    75   124   125    2
    76    38    36   ar
    77    27    26    1
    78    27    28    2
    79    47    48    1
    80    26    29    1
    81    26    25    1
    82    32    30   ar
    83    32    34   ar
    84   128   127    1
    85   128   129    1
    86   121   120    1
    87   121   122    2
    88   120   119    1
    89    29    30    1
    90    48    49    1
    91    48    51    1
    92    49    50    2
    93    36    34   ar
    94    30    31   ar
    95    34    33   ar
    96    54    52    1
    97   129   130    2
    98   129   136   am
    99    31    33   ar
   100   119   113   am
   101   114   113    2
   102    51    52    1
   103    52    53    1
   104   113   112    1
   105   136   137    1
   106   140   137    1
   107   140   141    1
   108   115   112    1
   109   115   116    1
   110   137   138    1
   111   112   111    1
   112    18    17    1
   113    18    19    2
   114    20    17    1
   115    20    21    1
   116    17    16    1
   117   142   141    2
   118   141   143   am
   119   116   118   ar
   120   116   117   ar
   121    24    22   ar
   122   138   139    2
   123    21    22    1
   124    15    13    1
   125    22    23   ar
   126     4     3    2
   127     3     2    1
   128     1     2    1
   129     2     5    1
   130    13    14    1
   131    13    12    1
   132     9    12    1
   133     9    10    1
   134     9     8    1
   135    10    11    2
   136     5     7    1
   137     5     6    1
