@<TRIPOS>MOLECULE
tmp/2e90B01.pdb
 235 219 0 0 0
SMALL
GASTEIGER

@<TRIPOS>ATOM
      1  N         21.8060   39.5360   31.5340 N.3    68  LEU68      -0.1245
      2  CA        22.9280   38.7050   31.0980 C.3    68  LEU68       0.1561
      3  C         22.5110   37.2470   30.9800 C.2    68  LEU68       0.2260
      4  O         22.7720   36.5780   29.9820 O.2    68  LEU68      -0.2867
      5  CB        24.0990   38.8250   32.0790 C.3    68  LEU68       0.0270
      6  CG        24.6580   40.2390   32.1570 C.3    68  LEU68       0.0019
      7  CD1       25.7050   40.3710   33.2560 C.3    68  LEU68       0.0001
      8  CD2       25.2190   40.5890   30.8150 C.3    68  LEU68       0.0001
      9  N         22.1980   35.2280   27.5200 N.3    72  SER72      -0.1202
     10  CA        23.1700   34.1610   27.3590 C.3    72  SER72       0.2020
     11  C         22.4560   32.8980   26.9110 C.2    72  SER72       0.2618
     12  O         23.0240   32.0880   26.1810 O.2    72  SER72      -0.2717
     13  CB        23.9100   33.8860   28.6660 C.3    72  SER72       0.2103
     14  OG        23.0890   33.2390   29.6190 O.3    72  SER72      -0.2182
     15  N         21.2160   32.7260   27.3570 N.am   73  LEU73      -0.1979
     16  CA        20.4510   31.5480   26.9700 C.3    73  LEU73       0.1596
     17  C         20.0700   31.6530   25.4910 C.2    73  LEU73       0.2287
     18  O         20.1220   30.6640   24.7510 O.2    73  LEU73      -0.2864
     19  CB        19.1920   31.4130   27.8360 C.3    73  LEU73       0.0297
     20  CG        19.3660   31.0510   29.3190 C.3    73  LEU73       0.0022
     21  CD1       18.0140   30.5860   29.8670 C.3    73  LEU73       0.0001
     22  CD2       20.4310   29.9310   29.4900 C.3    73  LEU73       0.0001
     23  N         21.7140   33.0100   23.1320 N.3    75  ILE75      -0.1231
     24  CA        22.9150   32.6520   22.3860 C.3    75  ILE75       0.1692
     25  C         23.3510   31.1990   22.6090 C.2    75  ILE75       0.2592
     26  O         23.7110   30.5190   21.6540 O.2    75  ILE75      -0.2718
     27  CB        24.0880   33.6550   22.7130 C.3    75  ILE75       0.0266
     28  CG1       23.8810   34.9550   21.9340 C.3    75  ILE75       0.0019
     29  CG2       25.4450   33.0620   22.3590 C.3    75  ILE75       0.0020
     30  CD1       24.0910   36.1500   22.8060 C.3    75  ILE75       0.0001
     31  N         23.3110   30.7120   23.8410 N.am   76  ASP76      -0.1960
     32  CA        23.7050   29.3290   24.0710 C.3    76  ASP76       0.1840
     33  C         22.8070   28.4370   23.2340 C.2    76  ASP76       0.2622
     34  O         23.2920   27.4990   22.6180 O.2    76  ASP76      -0.2715
     35  CB        23.5920   28.9420   25.5580 C.3    76  ASP76       0.1450
     36  CG        23.9770   27.4790   25.8250 C.2    76  ASP76       0.3671
     37  OD1       23.0690   26.6150   25.7900 O.co2  76  ASP76      -0.2456
     38  OD2       25.1800   27.1730   26.0620 O.co2  76  ASP76      -0.2456
     39  N         21.5090   28.7360   23.1750 N.am   77  ASP77      -0.1971
     40  CA        20.6040   27.8900   22.3900 C.3    77  ASP77       0.1709
     41  C         20.9250   27.8870   20.8960 C.2    77  ASP77       0.2293
     42  O         20.7780   26.8700   20.2420 O.2    77  ASP77      -0.2864
     43  CB        19.1320   28.2640   22.6370 C.3    77  ASP77       0.1436
     44  CG        18.6870   27.9300   24.0490 C.2    77  ASP77       0.3671
     45  OD1       19.0390   26.8380   24.5500 O.co2  77  ASP77      -0.2456
     46  OD2       17.9840   28.7510   24.6750 O.co2  77  ASP77      -0.2456
     47  N         23.9590   28.5140   19.7600 N.3    79  GLU79      -0.1231
     48  CA        25.2150   27.8020   19.7760 C.3    79  GLU79       0.1699
     49  C         25.0940   26.3030   20.0010 C.2    79  GLU79       0.2592
     50  O         25.9720   25.5360   19.6190 O.2    79  GLU79      -0.2718
     51  CB        26.1170   28.4160   20.8200 C.3    79  GLU79       0.0402
     52  CG        26.5370   29.8300   20.4380 C.3    79  GLU79       0.1161
     53  CD        27.3330   30.5130   21.5490 C.2    79  GLU79       0.3649
     54  OE1       27.9940   31.5520   21.2830 O.co2  79  GLU79      -0.2457
     55  OE2       27.2840   29.9980   22.6910 O.co2  79  GLU79      -0.2457
     56  N         24.0090   25.8620   20.6130 N.am   80  ASP80      -0.1974
     57  CA        23.8540   24.4270   20.8550 C.3    80  ASP80       0.1709
     58  C         22.7460   23.8620   19.9880 C.2    80  ASP80       0.2293
     59  O         22.3640   22.7310   20.1390 O.2    80  ASP80      -0.2864
     60  CB        23.5550   24.1560   22.3400 C.3    80  ASP80       0.1436
     61  CG        24.5950   24.7650   23.2630 C.2    80  ASP80       0.3671
     62  OD1       25.7090   25.0450   22.7590 O.co2  80  ASP80      -0.2456
     63  OD2       24.3140   24.9520   24.4790 O.co2  80  ASP80      -0.2456
     64  N         13.6470   25.4690   24.9390 N.3    85  ARG85      -0.1231
     65  CA        14.2250   26.0920   26.1210 C.3    85  ARG85       0.1694
     66  C         13.0970   26.2330   27.1260 C.2    85  ARG85       0.2591
     67  O         12.1260   26.9820   26.9210 O.2    85  ARG85      -0.2718
     68  CB        14.8320   27.4740   25.8360 C.3    85  ARG85       0.0321
     69  CG        15.1530   28.2900   27.1140 C.3    85  ARG85       0.0489
     70  CD        16.2610   27.6860   27.9890 C.3    85  ARG85       0.2205
     71  NE        17.5510   27.6890   27.2990 N.pl3  85  ARG85      -0.0865
     72  CZ        18.7250   27.3750   27.8410 C.cat  85  ARG85       0.5346
     73  NH1       18.8290   27.0310   29.1110 N.pl3  85  ARG85       0.1354
     74  NH2       19.8060   27.3810   27.0890 N.pl3  85  ARG85       0.1354
     75  N         13.2410   25.4900   28.2170 N.am   86  ARG86      -0.1980
     76  CA        12.2570   25.4790   29.2750 C.3    86  ARG86       0.1597
     77  C         10.8470   25.2730   28.7360 C.2    86  ARG86       0.2287
     78  O          9.9460   26.0730   28.9830 O.2    86  ARG86      -0.2864
     79  CB        12.3430   26.7670   30.0860 C.3    86  ARG86       0.0334
     80  CG        12.5590   26.4850   31.5790 C.3    86  ARG86       0.0492
     81  CD        13.6570   25.4270   31.8000 C.3    86  ARG86       0.2205
     82  NE        14.9050   25.7690   31.1080 N.pl3  86  ARG86      -0.0865
     83  CZ        16.1150   25.3880   31.5060 C.cat  86  ARG86       0.5346
     84  NH1       16.2670   24.6430   32.5990 N.pl3  86  ARG86       0.1354
     85  NH2       17.1770   25.7710   30.8210 N.pl3  86  ARG86       0.1354
     86  N         23.3670   42.6480   26.2520 N.3   108  TYR108     -0.1241
     87  CA        24.6670   42.6160   26.9590 C.3   108  TYR108      0.1605
     88  C         25.0800   44.0320   27.3330 C.2   108  TYR108      0.2264
     89  O         25.4890   44.2990   28.4680 O.2   108  TYR108     -0.2867
     90  CB        25.8100   42.0520   26.0930 C.3   108  TYR108      0.0534
     91  CG        25.8550   40.5550   25.9210 C.ar  108  TYR108     -0.0201
     92  CD1       26.8420   39.9770   25.1330 C.ar  108  TYR108     -0.0009
     93  CD2       24.9030   39.7090   26.5230 C.ar  108  TYR108     -0.0009
     94  CE1       26.8950   38.5950   24.9380 C.ar  108  TYR108      0.0417
     95  CE2       24.9390   38.3160   26.3350 C.ar  108  TYR108      0.0417
     96  CZ        25.9430   37.7690   25.5390 C.ar  108  TYR108      0.1957
     97  OH        26.0320   36.4090   25.3300 O.3   108  TYR108     -0.2866
     98  N         32.8680   38.9070   32.0260 N.3   136  LEU136     -0.1245
     99  CA        32.3260   38.5950   30.7230 C.3   136  LEU136      0.1561
    100  C         33.4010   37.9900   29.8150 C.2   136  LEU136      0.2260
    101  O         33.0920   37.1930   28.9030 O.2   136  LEU136     -0.2867
    102  CB        31.6670   39.8210   30.1020 C.3   136  LEU136      0.0270
    103  CG        30.2600   39.8650   30.7040 C.3   136  LEU136      0.0019
    104  CD1       29.6010   41.1510   30.3930 C.3   136  LEU136      0.0001
    105  CD2       29.4430   38.7300   30.1590 C.3   136  LEU136      0.0001
    106  N         33.5640   34.3460   31.1470 N.3   139  LEU139     -0.1231
    107  CA        32.4030   33.5720   30.7210 C.3   139  LEU139      0.1693
    108  C         32.5640   33.1360   29.2520 C.2   139  LEU139      0.2592
    109  O         32.2780   31.9860   28.8790 O.2   139  LEU139     -0.2718
    110  CB        31.1370   34.3950   30.9090 C.3   139  LEU139      0.0284
    111  CG        30.1250   33.9410   29.8590 C.3   139  LEU139      0.0019
    112  CD1       28.8640   33.3790   30.5240 C.3   139  LEU139      0.0001
    113  CD2       29.8450   35.1190   28.9190 C.3   139  LEU139      0.0001
    114  N         33.0580   34.0560   28.4280 N.am  140  HIS140     -0.1976
    115  CA        33.2840   33.7640   27.0250 C.3   140  HIS140      0.1656
    116  C         34.4310   32.7900   26.8160 C.2   140  HIS140      0.2291
    117  O         34.3900   31.9960   25.8780 O.2   140  HIS140     -0.2864
    118  CB        33.5110   35.0560   26.2560 C.3   140  HIS140      0.0771
    119  CG        32.2480   35.8070   26.0050 C.ar  140  HIS140      0.0820
    120  ND1       31.4230   35.5260   24.9410 N.ar  140  HIS140     -0.2267
    121  CD2       31.6440   36.8050   26.6990 C.ar  140  HIS140      0.1154
    122  CE1       30.3690   36.3230   24.9820 C.ar  140  HIS140      0.1986
    123  NE2       30.4790   37.1070   26.0380 N.ar  140  HIS140     -0.2212
    124  N         32.8600   29.3710   27.8010 N.3   143  GLN143     -0.1245
    125  CA        31.9410   29.0360   26.7310 C.3   143  GLN143      0.1566
    126  C         32.6940   28.6200   25.4490 C.2   143  GLN143      0.2260
    127  O         32.3550   27.6270   24.8200 O.2   143  GLN143     -0.2867
    128  CB        31.0500   30.2450   26.4510 C.3   143  GLN143      0.0367
    129  CG        30.0190   30.0160   25.3940 C.3   143  GLN143      0.0905
    130  CD        29.0310   28.9840   25.8180 C.2   143  GLN143      0.2608
    131  OE1       28.0690   28.7130   25.1230 O.2   143  GLN143     -0.2717
    132  NE2       29.2590   28.3930   26.9790 N.am  143  GLN143     -0.0878
    133  N         34.2120   25.1730   25.7260 N.3   146  ASP146     -0.1239
    134  CA        33.1770   24.1350   25.7160 C.3   146  ASP146      0.1674
    135  C         32.7390   23.9070   24.2510 C.2   146  ASP146      0.2266
    136  O         32.6010   22.7790   23.7930 O.2   146  ASP146     -0.2867
    137  CB        31.9880   24.5800   26.5870 C.3   146  ASP146      0.1410
    138  CG        31.0660   23.4140   26.9860 C.2   146  ASP146      0.3668
    139  OD1       31.5680   22.3700   27.4790 O.co2 146  ASP146     -0.2456
    140  OD2       29.8290   23.5460   26.8110 O.co2 146  ASP146     -0.2456
    141  N         33.0320   29.3050   32.4410 N.3   170  LYS170     -0.1231
    142  CA        31.6750   29.3500   31.9030 C.3   170  LYS170      0.1693
    143  C         30.6310   29.7530   32.9420 C.2   170  LYS170      0.2592
    144  O         30.3680   30.9320   33.1430 O.2   170  LYS170     -0.2718
    145  CB        31.3000   27.9940   31.2760 C.3   170  LYS170      0.0285
    146  CG        30.1090   28.0710   30.3320 C.3   170  LYS170      0.0035
    147  CD        29.7760   26.7440   29.6670 C.3   170  LYS170      0.0206
    148  CE        29.1250   25.7380   30.6270 C.3   170  LYS170      0.1093
    149  NZ        28.5550   24.5310   29.9390 N.3   170  LYS170     -0.1314
    150  N         30.0480   28.7540   33.5970 N.am  171  THR171     -0.1953
    151  CA        29.0110   28.9160   34.6230 C.3   171  THR171      0.1897
    152  C         29.3520   29.7860   35.8450 C.2   171  THR171      0.2313
    153  O         28.4760   30.4800   36.3760 O.2   171  THR171     -0.2863
    154  CB        28.6070   27.5460   35.1540 C.3   171  THR171      0.1794
    155  OG1       28.6340   26.6160   34.0720 O.3   171  THR171     -0.2208
    156  CG2       27.2220   27.5880   35.7580 C.3   171  THR171      0.0378
    157  N         28.9430   34.2370   35.7420 N.3   174  LEU174     -0.1245
    158  CA        27.7580   35.0130   36.1140 C.3   174  LEU174      0.1561
    159  C         27.5800   34.9940   37.6390 C.2   174  LEU174      0.2260
    160  O         27.1750   35.9920   38.2360 O.2   174  LEU174     -0.2867
    161  CB        26.5140   34.4380   35.4330 C.3   174  LEU174      0.0270
    162  CG        25.5170   35.4510   34.8620 C.3   174  LEU174      0.0019
    163  CD1       24.2710   34.7280   34.3480 C.3   174  LEU174      0.0001
    164  CD2       25.1260   36.4550   35.9250 C.3   174  LEU174      0.0001
    165  N         30.3090   37.2280   38.9490 N.3   177  LEU177     -0.1245
    166  CA        29.9590   38.5940   38.5680 C.3   177  LEU177      0.1561
    167  C         28.9710   39.1720   39.5600 C.2   177  LEU177      0.2260
    168  O         29.2110   40.2330   40.1150 O.2   177  LEU177     -0.2867
    169  CB        29.3600   38.6370   37.1510 C.3   177  LEU177      0.0270
    170  CG        28.7030   39.9200   36.5890 C.3   177  LEU177      0.0019
    171  CD1       29.4520   41.1370   37.0100 C.3   177  LEU177      0.0001
    172  CD2       28.6770   39.8600   35.0800 C.3   177  LEU177      0.0001
    173  N         26.2740   23.3630   40.2110 N.3   204  TYR204     -0.1227
    174  CA        25.1850   23.6300   39.3020 C.3   204  TYR204      0.1736
    175  C         25.3760   23.0430   37.8970 C.2   204  TYR204      0.2595
    176  O         24.4570   22.4140   37.3520 O.2   204  TYR204     -0.2718
    177  CB        24.9750   25.1270   39.1900 C.3   204  TYR204      0.0548
    178  CG        23.8760   25.4820   38.2410 C.ar  204  TYR204     -0.0200
    179  CD1       22.5460   25.3530   38.6120 C.ar  204  TYR204     -0.0009
    180  CD2       24.1690   25.9160   36.9470 C.ar  204  TYR204     -0.0009
    181  CE1       21.5200   25.6510   37.7140 C.ar  204  TYR204      0.0417
    182  CE2       23.1610   26.2150   36.0370 C.ar  204  TYR204      0.0417
    183  CZ        21.8390   26.0820   36.4290 C.ar  204  TYR204      0.1957
    184  OH        20.8430   26.4020   35.5390 O.3   204  TYR204     -0.2866
    185  N         26.5520   23.2550   37.3060 N.am  205  GLN205     -0.1979
    186  CA        26.8130   22.7630   35.9600 C.3   205  GLN205      0.1601
    187  C         26.8090   21.2370   35.8420 C.2   205  GLN205      0.2287
    188  O         26.1890   20.6540   34.9230 O.2   205  GLN205     -0.2864
    189  CB        28.1420   23.2890   35.4240 C.3   205  GLN205      0.0394
    190  CG        28.2500   23.0040   33.9300 C.3   205  GLN205      0.0908
    191  CD        27.0220   23.5410   33.1470 C.2   205  GLN205      0.2608
    192  OE1       26.7700   24.7520   33.1320 O.2   205  GLN205     -0.2717
    193  NE2       26.2510   22.6360   32.5170 N.am  205  GLN205     -0.0878
    194  N         23.5060   19.9690   36.2190 N.3   208  ASP208     -0.1239
    195  CA        22.8100   20.1960   34.9560 C.3   208  ASP208      0.1674
    196  C         23.1540   19.0680   33.9910 C.2   208  ASP208      0.2266
    197  O         22.2700   18.4900   33.3470 O.2   208  ASP208     -0.2867
    198  CB        23.2350   21.5520   34.3770 C.3   208  ASP208      0.1410
    199  CG        22.5440   21.8830   33.0620 C.2   208  ASP208      0.3668
    200  OD1       21.3170   21.6470   32.9590 O.co2 208  ASP208     -0.2456
    201  OD2       23.2340   22.3980   32.1430 O.co2 208  ASP208     -0.2456
    202  N         20.3400   16.0000   32.8420 N.3   212  ASN212     -0.1240
    203  CA        19.9870   15.9410   31.4200 C.3   212  ASN212      0.1653
    204  C         20.0110   14.5220   30.8670 C.2   212  ASN212      0.2266
    205  O         19.3250   14.2260   29.8990 O.2   212  ASN212     -0.2867
    206  CB        20.9380   16.8240   30.6050 C.3   212  ASN212      0.1155
    207  CG        20.5440   16.9220   29.1380 C.2   212  ASN212      0.2627
    208  OD1       20.6390   15.9550   28.3880 O.2   212  ASN212     -0.2716
    209  ND2       20.0980   18.1010   28.7250 N.am  212  ASN212     -0.0877
    210  N         21.6900   17.0290   25.4410 N.3   223  ASP223     -0.1239
    211  CA        23.1430   17.0940   25.4890 C.3   223  ASP223      0.1674
    212  C         23.8260   16.0360   24.6190 C.2   223  ASP223      0.2266
    213  O         24.9690   16.2300   24.2090 O.2   223  ASP223     -0.2867
    214  CB        23.6490   16.9970   26.9410 C.3   223  ASP223      0.1410
    215  CG        23.3280   18.2520   27.7640 C.2   223  ASP223      0.3668
    216  OD1       22.6260   19.1470   27.2410 O.co2 223  ASP223     -0.2456
    217  OD2       23.7690   18.3490   28.9330 O.co2 223  ASP223     -0.2456
    218  N         23.5290   17.2840   20.9680 N.3   226  GLU226     -0.1245
    219  CA        24.4610   18.3850   20.8100 C.3   226  GLU226      0.1567
    220  C         25.9310   17.9330   20.7250 C.2   226  GLU226      0.2260
    221  O         26.7660   18.6650   20.1820 O.2   226  GLU226     -0.2867
    222  CB        24.2680   19.3780   21.9680 C.3   226  GLU226      0.0388
    223  CG        25.2910   20.4810   22.0300 C.3   226  GLU226      0.1160
    224  CD        25.2240   21.2850   23.3340 C.2   226  GLU226      0.3649
    225  OE1       24.2620   21.0700   24.1060 O.co2 226  GLU226     -0.2457
    226  OE2       26.1250   22.1270   23.5940 O.co2 226  GLU226     -0.2457
    227  N         27.8880   17.4840   23.2440 N.3   228  LYS228     -0.1245
    228  CA        28.5190   18.1980   24.3460 C.3   228  LYS228      0.1561
    229  C         29.4270   17.3380   25.2580 C.2   228  LYS228      0.2260
    230  O         29.0510   16.2350   25.6690 O.2   228  LYS228     -0.2867
    231  CB        27.3590   18.8190   25.1290 C.3   228  LYS228      0.0271
    232  CG        27.6340   19.4690   26.4330 C.3   228  LYS228      0.0035
    233  CD        26.2840   19.6960   27.0950 C.3   228  LYS228      0.0206
    234  CE        26.3800   20.6360   28.2780 C.3   228  LYS228      0.1093
    235  NZ        26.8010   22.0050   27.8340 N.3   228  LYS228     -0.1314
@<TRIPOS>BOND
     1    50    49    2
     2    47    48    1
     3    48    49    1
     4    48    51    1
     5    58    59    2
     6    58    57    1
     7    49    56   am
     8   221   220    2
     9    42    41    2
    10    52    51    1
    11    52    53    1
    12    56    57    1
    13   220   219    1
    14   219   218    1
    15   219   222    1
    16    57    60    1
    17    41    40    1
    18    54    53   ar
    19    53    55   ar
    20    26    25    2
    21    28    27    1
    22    28    30    1
    23   222   223    1
    24   223   224    1
    25    60    61    1
    26    29    27    1
    27    24    25    1
    28    24    27    1
    29    24    23    1
    30    40    43    1
    31    40    39    1
    32    25    31   am
    33    34    33    2
    34    43    44    1
    35    62    61   ar
    36    39    33   am
    37    33    32    1
    38   227   228    1
    39    61    63   ar
    40   224   226   ar
    41   224   225   ar
    42   136   135    2
    43    31    32    1
    44    44    45   ar
    45    44    46   ar
    46    32    35    1
    47   213   212    2
    48   135   134    1
    49   228   231    1
    50   228   229    1
    51   212   211    1
    52    18    17    2
    53   127   126    2
    54    94    92   ar
    55    94    96   ar
    56    64    65    1
    57   120   122   ar
    58   120   119   ar
    59   122   123   ar
    60   131   130    2
    61   231   232    1
    62    92    91   ar
    63   229   230    2
    64    97    96    1
    65   129   130    1
    66   129   128    1
    67   210   211    1
    68   126   125    1
    69   211   214    1
    70    17    16    1
    71    96    95   ar
    72    35    36    1
    73   134   133    1
    74   134   137    1
    75    37    36   ar
    76   130   132   am
    77    36    38   ar
    78    68    65    1
    79    68    69    1
    80   117   116    2
    81    91    90    1
    82    91    93   ar
    83   119   118    1
    84   119   121   ar
    85   123   121   ar
    86    90    87    1
    87    65    66    1
    88    12    11    2
    89    86    87    1
    90   118   115    1
    91    95    93   ar
    92   232   233    1
    93   128   125    1
    94   137   138    1
    95   125   124    1
    96   140   138   ar
    97   116   115    1
    98    11    15   am
    99    11    10    1
   100    67    66    2
   101   214   215    1
   102    87    88    1
   103    16    15    1
   104    16    19    1
   105   138   139   ar
   106   115   114    1
   107    74    72    1
   108   233   234    1
   109    69    70    1
   110    66    75   am
   111   216   215   ar
   112    71    72    2
   113    71    70    1
   114    88    89    2
   115    10     9    1
   116    10    13    1
   117   215   217   ar
   118   235   234    1
   119    19    20    1
   120    72    73    1
   121    75    76    1
   122   208   207    2
   123   114   108   am
   124    13    14    1
   125   209   207   am
   126    77    78    2
   127    77    76    1
   128   109   108    2
   129   101   100    2
   130   113   111    1
   131   207   206    1
   132   108   107    1
   133    76    79    1
   134    20    22    1
   135    20    21    1
   136   147   146    1
   137   147   148    1
   138   100    99    1
   139   111   112    1
   140   111   110    1
   141   205   204    2
   142   149   148    1
   143     4     3    2
   144    79    80    1
   145   102   103    1
   146   102    99    1
   147   105   103    1
   148   146   145    1
   149   104   103    1
   150   206   203    1
   151   107   110    1
   152   107   106    1
   153    99    98    1
   154     8     6    1
   155    85    83    1
   156   204   203    1
   157     3     2    1
   158     2     1    1
   159     2     5    1
   160    82    83    2
   161    82    81    1
   162   145   142    1
   163   203   202    1
   164    83    84    1
   165    80    81    1
   166   142   141    1
   167   142   143    1
   168     5     6    1
   169   201   199   ar
   170     6     7    1
   171   193   191   am
   172   143   144    2
   173   143   150   am
   174   200   199   ar
   175   199   198    1
   176   192   191    2
   177   191   190    1
   178   197   196    2
   179   150   151    1
   180   190   189    1
   181   196   195    1
   182   155   154    1
   183   163   162    1
   184   198   195    1
   185   151   154    1
   186   151   152    1
   187   162   161    1
   188   162   164    1
   189   188   187    2
   190   195   194    1
   191   172   170    1
   192   154   156    1
   193   189   186    1
   194   161   158    1
   195   184   183    1
   196   157   158    1
   197   187   186    1
   198   152   153    2
   199   186   185    1
   200   182   183   ar
   201   182   180   ar
   202   158   159    1
   203   183   181   ar
   204   170   171    1
   205   170   169    1
   206   180   178   ar
   207   169   166    1
   208   185   175   am
   209   176   175    2
   210   159   160    2
   211   181   179   ar
   212   175   174    1
   213   178   179   ar
   214   178   177    1
   215   166   165    1
   216   166   167    1
   217   177   174    1
   218   174   173    1
   219   167   168    2
