@<TRIPOS>MOLECULE
tmp/2e91B00.pdb
 144 132 0 0 0
SMALL
GASTEIGER

@<TRIPOS>ATOM
      1  N         23.0660   35.3240   27.6900 N.3    65  SER65      -0.1202
      2  CA        24.0430   34.2550   27.5730 C.3    65  SER65       0.2020
      3  C         23.3330   32.9800   27.1640 C.2    65  SER65       0.2618
      4  O         23.9220   32.1840   26.4110 O.2    65  SER65      -0.2717
      5  CB        24.8410   34.0650   28.8760 C.3    65  SER65       0.2103
      6  OG        24.0660   33.3420   29.8170 O.3    65  SER65      -0.2182
      7  N         22.0840   32.7730   27.6050 N.am   66  LEU66      -0.1979
      8  CA        21.3680   31.5720   27.1610 C.3    66  LEU66       0.1596
      9  C         20.8650   31.6930   25.6810 C.2    66  LEU66       0.2287
     10  O         20.8480   30.6970   24.9250 O.2    66  LEU66      -0.2864
     11  CB        20.1970   31.2550   28.0960 C.3    66  LEU66       0.0297
     12  CG        20.5310   31.0250   29.5920 C.3    66  LEU66       0.0022
     13  CD1       19.3210   30.4840   30.3660 C.3    66  LEU66       0.0001
     14  CD2       21.6910   30.0170   29.6980 C.3    66  LEU66       0.0001
     15  N         23.8780   30.8290   23.8220 N.3    69  ASP69      -0.1225
     16  CA        24.2180   29.4470   24.1470 C.3    69  ASP69       0.1805
     17  C         23.3490   28.5160   23.3230 C.2    69  ASP69       0.2597
     18  O         23.8590   27.5240   22.7780 O.2    69  ASP69      -0.2718
     19  CB        24.0380   29.1450   25.6390 C.3    69  ASP69       0.1424
     20  CG        24.4170   27.6990   25.9980 C.2    69  ASP69       0.3668
     21  OD1       23.4920   26.8400   26.1650 O.co2  69  ASP69      -0.2456
     22  OD2       25.6510   27.4220   26.1200 O.co2  69  ASP69      -0.2456
     23  N         22.0510   28.8140   23.2050 N.am   70  ASP70      -0.1974
     24  CA        21.1950   27.9490   22.4000 C.3    70  ASP70       0.1709
     25  C         21.5580   27.9570   20.9060 C.2    70  ASP70       0.2293
     26  O         21.4260   26.9370   20.2590 O.2    70  ASP70      -0.2864
     27  CB        19.7050   28.2900   22.6260 C.3    70  ASP70       0.1436
     28  CG        19.2620   27.9170   24.0490 C.2    70  ASP70       0.3671
     29  OD1       19.7400   26.8720   24.5310 O.co2  70  ASP70      -0.2456
     30  OD2       18.4750   28.6460   24.6880 O.co2  70  ASP70      -0.2456
     31  N         24.6350   25.7910   20.7320 N.3    73  ASP73      -0.1239
     32  CA        24.4400   24.3800   20.9720 C.3    73  ASP73       0.1674
     33  C         23.3230   23.8560   20.0760 C.2    73  ASP73       0.2266
     34  O         22.8230   22.7490   20.2840 O.2    73  ASP73      -0.2867
     35  CB        24.1310   24.1350   22.4850 C.3    73  ASP73       0.1410
     36  CG        25.2450   24.6950   23.4090 C.2    73  ASP73       0.3668
     37  OD1       26.3800   24.8930   22.8950 O.co2  73  ASP73      -0.2456
     38  OD2       25.0200   24.9500   24.6300 O.co2  73  ASP73      -0.2456
     39  N         14.1400   25.3000   25.1960 N.3    78  ARG78      -0.1245
     40  CA        14.6320   25.9310   26.3990 C.3    78  ARG78       0.1563
     41  C         13.4040   25.9760   27.3210 C.2    78  ARG78       0.2260
     42  O         12.3720   26.5510   26.9720 O.2    78  ARG78      -0.2867
     43  CB        15.1530   27.3360   26.0690 C.3    78  ARG78       0.0307
     44  CG        15.4350   28.2410   27.2530 C.3    78  ARG78       0.0489
     45  CD        16.5590   27.7680   28.1440 C.3    78  ARG78       0.2205
     46  NE        17.8640   27.7700   27.4700 N.pl3  78  ARG78      -0.0865
     47  CZ        19.0010   27.4410   28.0850 C.cat  78  ARG78       0.5346
     48  NH1       18.9870   27.1270   29.3810 N.pl3  78  ARG78       0.1354
     49  NH2       20.1300   27.3230   27.4040 N.pl3  78  ARG78       0.1354
     50  N         33.5700   34.2200   31.1090 N.3   132  LEU132     -0.1245
     51  CA        32.4540   33.4160   30.5630 C.3   132  LEU132      0.1561
     52  C         32.8330   32.9990   29.1380 C.2   132  LEU132      0.2260
     53  O         32.6680   31.8750   28.7750 O.2   132  LEU132     -0.2867
     54  CB        31.1680   34.2390   30.4760 C.3   132  LEU132      0.0270
     55  CG        30.0870   33.7140   29.5260 C.3   132  LEU132      0.0019
     56  CD1       29.4440   32.3930   30.0780 C.3   132  LEU132      0.0001
     57  CD2       29.0050   34.8110   29.3240 C.3   132  LEU132      0.0001
     58  N         33.2590   29.2680   27.7000 N.3   136  GLN136     -0.1245
     59  CA        32.3840   28.8530   26.6090 C.3   136  GLN136      0.1566
     60  C         33.2500   28.4810   25.3680 C.2   136  GLN136      0.2260
     61  O         33.0390   27.4800   24.7470 O.2   136  GLN136     -0.2867
     62  CB        31.4390   29.9900   26.2780 C.3   136  GLN136      0.0367
     63  CG        30.2480   29.5160   25.5580 C.3   136  GLN136      0.0905
     64  CD        29.1280   29.0580   26.4980 C.2   136  GLN136      0.2608
     65  OE1       27.9710   29.2780   26.1960 O.2   136  GLN136     -0.2717
     66  NE2       29.4670   28.3990   27.6030 N.am  136  GLN136     -0.0878
     67  N         34.7420   24.9890   25.8070 N.3   139  ASP139     -0.1239
     68  CA        33.6620   23.9790   25.7590 C.3   139  ASP139      0.1674
     69  C         33.2910   23.7720   24.2610 C.2   139  ASP139      0.2266
     70  O         33.1930   22.6540   23.7700 O.2   139  ASP139     -0.2867
     71  CB        32.4190   24.4800   26.5480 C.3   139  ASP139      0.1410
     72  CG        31.4800   23.3440   26.9850 C.2   139  ASP139      0.3668
     73  OD1       31.9510   22.2480   27.3370 O.co2 139  ASP139     -0.2456
     74  OD2       30.2540   23.5350   26.9880 O.co2 139  ASP139     -0.2456
     75  N         33.3140   29.0980   32.3390 N.3   163  LYS163     -0.1231
     76  CA        32.0200   29.0130   31.6820 C.3   163  LYS163      0.1693
     77  C         30.8010   29.1500   32.5950 C.2   163  LYS163      0.2592
     78  O         29.7720   29.6920   32.1620 O.2   163  LYS163     -0.2718
     79  CB        31.9210   27.6860   30.9630 C.3   163  LYS163      0.0285
     80  CG        30.5970   27.3780   30.2880 C.3   163  LYS163      0.0035
     81  CD        30.5510   25.9240   29.7160 C.3   163  LYS163      0.0206
     82  CE        29.6720   24.9840   30.5820 C.3   163  LYS163      0.1093
     83  NZ        29.4180   23.6400   29.9710 N.3   163  LYS163     -0.1314
     84  N         30.8850   28.6430   33.8250 N.am  164  THR164     -0.1953
     85  CA        29.7520   28.7290   34.7420 C.3   164  THR164      0.1897
     86  C         30.1030   29.6160   35.9440 C.2   164  THR164      0.2313
     87  O         29.2600   30.4000   36.4290 O.2   164  THR164     -0.2863
     88  CB        29.3480   27.3340   35.2010 C.3   164  THR164      0.1794
     89  OG1       28.8580   26.6210   34.0690 O.3   164  THR164     -0.2208
     90  CG2       28.2680   27.3910   36.2700 C.3   164  THR164      0.0378
     91  N         26.6420   23.2190   40.1980 N.3   195  TYR195     -0.1227
     92  CA        25.5140   23.4870   39.2800 C.3   195  TYR195      0.1736
     93  C         25.7650   22.8790   37.9100 C.2   195  TYR195      0.2595
     94  O         24.8720   22.2620   37.3460 O.2   195  TYR195     -0.2718
     95  CB        25.2710   24.9930   39.1050 C.3   195  TYR195      0.0548
     96  CG        24.3310   25.3450   37.9580 C.ar  195  TYR195     -0.0200
     97  CD1       22.9550   25.4400   38.1450 C.ar  195  TYR195     -0.0009
     98  CD2       24.8250   25.4630   36.6480 C.ar  195  TYR195     -0.0009
     99  CE1       22.0880   25.6310   37.0560 C.ar  195  TYR195      0.0417
    100  CE2       23.9860   25.6380   35.5660 C.ar  195  TYR195      0.0417
    101  CZ        22.6150   25.7170   35.7630 C.ar  195  TYR195      0.1957
    102  OH        21.8130   25.8160   34.6390 O.3   195  TYR195     -0.2866
    103  N         26.9850   23.0360   37.3840 N.am  196  GLN196     -0.1979
    104  CA        27.2810   22.5400   36.0300 C.3   196  GLN196      0.1601
    105  C         27.3430   21.0220   35.9050 C.2   196  GLN196      0.2287
    106  O         26.7860   20.4410   34.9650 O.2   196  GLN196     -0.2864
    107  CB        28.5900   23.1480   35.4730 C.3   196  GLN196      0.0394
    108  CG        28.7570   22.7550   33.9840 C.3   196  GLN196      0.0908
    109  CD        27.6490   23.3630   33.1390 C.2   196  GLN196      0.2608
    110  OE1       27.4490   24.5640   33.1770 O.2   196  GLN196     -0.2717
    111  NE2       26.9110   22.5460   32.4120 N.am  196  GLN196     -0.0878
    112  N         24.0050   19.6660   36.0080 N.3   199  ASP199     -0.1239
    113  CA        23.3120   19.9890   34.7550 C.3   199  ASP199      0.1674
    114  C         23.6300   18.8670   33.7720 C.2   199  ASP199      0.2266
    115  O         22.7190   18.2440   33.1960 O.2   199  ASP199     -0.2867
    116  CB        23.8080   21.3510   34.2330 C.3   199  ASP199      0.1410
    117  CG        23.1710   21.7510   32.9210 C.2   199  ASP199      0.3668
    118  OD1       21.9220   21.9430   32.9100 O.co2 199  ASP199     -0.2456
    119  OD2       23.9260   21.8800   31.9120 O.co2 199  ASP199     -0.2456
    120  N         20.9100   15.8850   32.6380 N.3   203  ASN203     -0.1240
    121  CA        20.6160   15.7880   31.2070 C.3   203  ASN203      0.1653
    122  C         20.5290   14.3240   30.7380 C.2   203  ASN203      0.2266
    123  O         19.7230   13.9740   29.8560 O.2   203  ASN203     -0.2867
    124  CB        21.7530   16.4880   30.4110 C.3   203  ASN203      0.1155
    125  CG        21.3800   16.7640   28.9950 C.2   203  ASN203      0.2627
    126  OD1       21.6040   15.9710   28.0880 O.2   203  ASN203     -0.2716
    127  ND2       20.7640   17.9000   28.7950 N.am  203  ASN203     -0.0877
    128  N         22.5060   16.7450   25.4010 N.3   211  ASP211     -0.1239
    129  CA        23.9690   16.8320   25.4020 C.3   211  ASP211      0.1674
    130  C         24.5510   15.7910   24.4350 C.2   211  ASP211      0.2266
    131  O         25.5470   16.0410   23.7760 O.2   211  ASP211     -0.2867
    132  CB        24.5310   16.6460   26.8080 C.3   211  ASP211      0.1410
    133  CG        24.2180   17.8330   27.6950 C.2   211  ASP211      0.3668
    134  OD1       23.8820   18.8760   27.1120 O.co2 211  ASP211     -0.2456
    135  OD2       24.3030   17.7750   28.9510 O.co2 211  ASP211     -0.2456
    136  N         28.6550   17.4310   23.3890 N.3   216  LYS216     -0.1245
    137  CA        29.4540   18.1380   24.3880 C.3   216  LYS216      0.1561
    138  C         30.2700   17.1550   25.2690 C.2   216  LYS216      0.2260
    139  O         29.8680   16.0020   25.4800 O.2   216  LYS216     -0.2867
    140  CB        28.5170   19.0230   25.2430 C.3   216  LYS216      0.0271
    141  CG        28.5990   18.7600   26.7280 C.3   216  LYS216      0.0035
    142  CD        27.3190   19.1270   27.4490 C.3   216  LYS216      0.0206
    143  CE        27.2280   20.6080   27.8740 C.3   216  LYS216      0.1093
    144  NZ        26.0500   21.1450   27.1730 N.3   216  LYS216     -0.1314
@<TRIPOS>BOND
     1    33    34    2
     2    33    32    1
     3    26    25    2
     4    31    32    1
     5    25    24    1
     6    32    35    1
     7    24    27    1
     8    24    23    1
     9    35    36    1
    10    27    28    1
    11    18    17    2
    12    37    36   ar
    13    23    17   am
    14    17    16    1
    15   136   137    1
    16    36    38   ar
    17    70    69    2
    18   131   130    2
    19    15    16    1
    20    28    29   ar
    21    28    30   ar
    22    16    19    1
    23    69    68    1
    24   137   140    1
    25   137   138    1
    26   130   129    1
    27    61    60    2
    28    10     9    2
    29    39    40    1
    30   140   141    1
    31   138   139    2
    32    60    59    1
    33   128   129    1
    34   129   132    1
    35    63    62    1
    36    63    64    1
    37    19    20    1
    38     9     8    1
    39    68    67    1
    40    68    71    1
    41    20    22   ar
    42    20    21   ar
    43    43    40    1
    44    43    44    1
    45    65    64    2
    46    62    59    1
    47    40    41    1
    48     4     3    2
    49    64    66   am
    50    71    72    1
    51    59    58    1
    52   141   142    1
    53   132   133    1
    54    42    41    2
    55    72    74   ar
    56    72    73   ar
    57   134   133   ar
    58     8     7    1
    59     8    11    1
    60     3     2    1
    61     3     7   am
    62   144   143    1
    63    44    45    1
    64    49    47    1
    65   142   143    1
    66    46    47    2
    67    46    45    1
    68     2     1    1
    69     2     5    1
    70   133   135   ar
    71    47    48    1
    72   126   125    2
    73    11    12    1
    74    53    52    2
    75   127   125   am
    76     5     6    1
    77   125   124    1
    78    52    51    1
    79    57    55    1
    80    55    56    1
    81    55    54    1
    82    12    14    1
    83    12    13    1
    84    81    80    1
    85    81    82    1
    86   123   122    2
    87    83    82    1
    88    80    79    1
    89   124   121    1
    90    54    51    1
    91    51    50    1
    92   122   121    1
    93    79    76    1
    94   121   120    1
    95    76    75    1
    96    76    77    1
    97   119   117   ar
    98    78    77    2
    99   111   109   am
   100    77    84   am
   101   118   117   ar
   102   117   116    1
   103   109   110    2
   104   109   108    1
   105   115   114    2
   106   114   113    1
   107    84    85    1
   108   108   107    1
   109    89    88    1
   110   116   113    1
   111   102   101    1
   112    85    88    1
   113    85    86    1
   114   113   112    1
   115   106   105    2
   116    88    90    1
   117   107   104    1
   118   100   101   ar
   119   100    98   ar
   120   101    99   ar
   121   105   104    1
   122    86    87    2
   123   104   103    1
   124    98    96   ar
   125    99    97   ar
   126    94    93    2
   127   103    93   am
   128    93    92    1
   129    96    97   ar
   130    96    95    1
   131    95    92    1
   132    92    91    1
