@<TRIPOS>MOLECULE
tmp/2e92B00.pdb
 161 147 0 0 0
SMALL
GASTEIGER

@<TRIPOS>ATOM
      1  N         23.3350   35.3320   27.4810 N.3    70  SER70      -0.1202
      2  CA        24.2770   34.2290   27.2690 C.3    70  SER70       0.2020
      3  C         23.5040   32.9560   26.9690 C.2    70  SER70       0.2618
      4  O         23.9660   32.1170   26.2090 O.2    70  SER70      -0.2717
      5  CB        25.2440   34.0580   28.4440 C.3    70  SER70       0.2103
      6  OG        24.5270   33.7110   29.6050 O.3    70  SER70      -0.2182
      7  N         22.2970   32.8260   27.4960 N.am   71  LEU71      -0.1979
      8  CA        21.5240   31.6350   27.1300 C.3    71  LEU71       0.1596
      9  C         21.0500   31.7330   25.6720 C.2    71  LEU71       0.2287
     10  O         21.0230   30.7090   24.9700 O.2    71  LEU71      -0.2864
     11  CB        20.2940   31.4380   28.0340 C.3    71  LEU71       0.0297
     12  CG        20.5860   31.1070   29.5010 C.3    71  LEU71       0.0022
     13  CD1       19.3040   30.5560   30.1610 C.3    71  LEU71       0.0001
     14  CD2       21.7610   30.1050   29.5860 C.3    71  LEU71       0.0001
     15  N         24.0370   30.7360   23.6920 N.3    74  ASP74      -0.1225
     16  CA        24.3670   29.3470   23.9610 C.3    74  ASP74       0.1805
     17  C         23.4630   28.4250   23.1460 C.2    74  ASP74       0.2597
     18  O         23.9060   27.3840   22.6530 O.2    74  ASP74      -0.2718
     19  CB        24.2340   29.0410   25.4580 C.3    74  ASP74       0.1424
     20  CG        24.6740   27.6180   25.8180 C.2    74  ASP74       0.3668
     21  OD1       23.8050   26.6870   25.8480 O.co2  74  ASP74      -0.2456
     22  OD2       25.8980   27.4370   26.0770 O.co2  74  ASP74      -0.2456
     23  N         22.2140   28.8090   22.9480 N.am   75  ASP75      -0.1974
     24  CA        21.3650   27.9290   22.1740 C.3    75  ASP75       0.1709
     25  C         21.7300   27.9390   20.7250 C.2    75  ASP75       0.2293
     26  O         21.6470   26.8990   20.0680 O.2    75  ASP75      -0.2864
     27  CB        19.8770   28.2410   22.4140 C.3    75  ASP75       0.1436
     28  CG        19.4990   27.9290   23.8310 C.2    75  ASP75       0.3671
     29  OD1       19.9600   26.8380   24.2960 O.co2  75  ASP75      -0.2456
     30  OD2       18.8000   28.7600   24.4780 O.co2  75  ASP75      -0.2456
     31  N         24.8290   25.7020   20.5610 N.3    78  ASP78      -0.1239
     32  CA        24.6200   24.2980   20.7890 C.3    78  ASP78       0.1674
     33  C         23.5190   23.7900   19.8640 C.2    78  ASP78       0.2266
     34  O         23.1280   22.6430   19.9370 O.2    78  ASP78      -0.2867
     35  CB        24.2890   24.0490   22.2650 C.3    78  ASP78       0.1410
     36  CG        25.3760   24.5970   23.2080 C.2    78  ASP78       0.3668
     37  OD1       26.5450   24.8030   22.7480 O.co2  78  ASP78      -0.2456
     38  OD2       25.0650   24.8330   24.4020 O.co2  78  ASP78      -0.2456
     39  N         14.2340   25.1880   25.0240 N.3    83  ARG83      -0.1245
     40  CA        14.7640   25.7890   26.2420 C.3    83  ARG83       0.1563
     41  C         13.5990   25.8990   27.2400 C.2    83  ARG83       0.2260
     42  O         12.7690   26.8150   27.1810 O.2    83  ARG83      -0.2867
     43  CB        15.3880   27.1630   25.9260 C.3    83  ARG83       0.0307
     44  CG        15.6980   28.0610   27.1220 C.3    83  ARG83       0.0489
     45  CD        16.8880   27.6370   27.9610 C.3    83  ARG83       0.2205
     46  NE        18.1530   27.6820   27.2320 N.pl3  83  ARG83      -0.0865
     47  CZ        19.3190   27.2840   27.7500 C.cat  83  ARG83       0.5346
     48  NH1       19.3660   26.8320   28.9990 N.pl3  83  ARG83       0.1354
     49  NH2       20.4330   27.2690   27.0190 N.pl3  83  ARG83       0.1354
     50  N         33.9910   34.0390   31.0890 N.3   137  LEU137     -0.1245
     51  CA        32.8560   33.3080   30.5740 C.3   137  LEU137      0.1561
     52  C         33.1240   32.9100   29.1190 C.2   137  LEU137      0.2260
     53  O         32.9080   31.7820   28.7310 O.2   137  LEU137     -0.2867
     54  CB        31.6190   34.1960   30.6470 C.3   137  LEU137      0.0270
     55  CG        30.4610   33.8420   29.7260 C.3   137  LEU137      0.0019
     56  CD1       29.9970   32.5310   30.0710 C.3   137  LEU137      0.0001
     57  CD2       29.3160   34.8500   29.9150 C.3   137  LEU137      0.0001
     58  N         33.5570   29.0420   27.7290 N.3   141  GLN141     -0.1245
     59  CA        32.5360   28.7130   26.7520 C.3   141  GLN141      0.1566
     60  C         33.3020   28.3950   25.4450 C.2   141  GLN141      0.2260
     61  O         33.0250   27.4120   24.7570 O.2   141  GLN141     -0.2867
     62  CB        31.6020   29.9210   26.6190 C.3   141  GLN141      0.0367
     63  CG        30.4100   29.7250   25.7920 C.3   141  GLN141      0.0905
     64  CD        29.2960   28.9840   26.5150 C.2   141  GLN141      0.2608
     65  OE1       28.1930   28.8600   25.9810 O.2   141  GLN141     -0.2717
     66  NE2       29.5680   28.4900   27.7120 N.am  141  GLN141     -0.0878
     67  N         34.9990   24.9240   25.7370 N.3   144  ASP144     -0.1239
     68  CA        33.9280   23.9220   25.7620 C.3   144  ASP144      0.1674
     69  C         33.5170   23.6710   24.2920 C.2   144  ASP144      0.2266
     70  O         33.4050   22.5570   23.8290 O.2   144  ASP144     -0.2867
     71  CB        32.7630   24.4870   26.5900 C.3   144  ASP144      0.1410
     72  CG        31.5680   23.5010   26.7660 C.2   144  ASP144      0.3668
     73  OD1       31.7250   22.4070   27.3710 O.co2 144  ASP144     -0.2456
     74  OD2       30.4450   23.8480   26.3020 O.co2 144  ASP144     -0.2456
     75  N         33.9250   29.0420   32.3960 N.3   168  LYS168     -0.1231
     76  CA        32.5880   29.0230   31.8270 C.3   168  LYS168      0.1693
     77  C         31.4510   29.3110   32.8050 C.2   168  LYS168      0.2592
     78  O         30.7580   30.3440   32.7160 O.2   168  LYS168     -0.2718
     79  CB        32.3350   27.6740   31.1330 C.3   168  LYS168      0.0285
     80  CG        31.0670   27.6310   30.2990 C.3   168  LYS168      0.0035
     81  CD        30.8910   26.3340   29.5540 C.3   168  LYS168      0.0206
     82  CE        30.3060   25.2890   30.4400 C.3   168  LYS168      0.1093
     83  NZ        30.0630   23.9740   29.7670 N.3   168  LYS168     -0.1314
     84  N         31.2400   28.4170   33.7500 N.am  169  THR169     -0.1953
     85  CA        30.1530   28.6390   34.6750 C.3   169  THR169      0.1897
     86  C         30.4790   29.5630   35.8470 C.2   169  THR169      0.2313
     87  O         29.5980   30.2700   36.3300 O.2   169  THR169     -0.2863
     88  CB        29.6350   27.3110   35.1790 C.3   169  THR169      0.1794
     89  OG1       29.1820   26.5640   34.0560 O.3   169  THR169     -0.2208
     90  CG2       28.4780   27.5100   36.1350 C.3   169  THR169      0.0378
     91  N         29.6230   34.0750   35.5220 N.3   172  LEU172     -0.1245
     92  CA        28.5150   34.8730   36.0310 C.3   172  LEU172      0.1561
     93  C         28.2720   34.6930   37.5390 C.2   172  LEU172      0.2260
     94  O         27.7650   35.6180   38.2060 O.2   172  LEU172     -0.2867
     95  CB        27.2250   34.6060   35.2360 C.3   172  LEU172      0.0270
     96  CG        27.2740   34.9050   33.7280 C.3   172  LEU172      0.0019
     97  CD1       25.9990   34.3430   33.0590 C.3   172  LEU172      0.0001
     98  CD2       27.4640   36.4440   33.4410 C.3   172  LEU172      0.0001
     99  N         26.9150   23.0810   40.0770 N.3   198  TYR198     -0.1227
    100  CA        25.8570   23.3960   39.1430 C.3   198  TYR198      0.1736
    101  C         26.1040   22.8030   37.7460 C.2   198  TYR198      0.2595
    102  O         25.2230   22.1850   37.1590 O.2   198  TYR198     -0.2718
    103  CB        25.7180   24.9240   39.0550 C.3   198  TYR198      0.0548
    104  CG        24.7330   25.3590   38.0160 C.ar  198  TYR198     -0.0200
    105  CD1       23.3960   25.5040   38.3250 C.ar  198  TYR198     -0.0009
    106  CD2       25.1270   25.5330   36.6840 C.ar  198  TYR198     -0.0009
    107  CE1       22.4550   25.8030   37.3300 C.ar  198  TYR198      0.0417
    108  CE2       24.2050   25.8200   35.6960 C.ar  198  TYR198      0.0417
    109  CZ        22.8630   25.9520   36.0260 C.ar  198  TYR198      0.1957
    110  OH        21.9220   26.1980   35.0400 O.3   198  TYR198     -0.2866
    111  N         27.3070   22.9680   37.2170 N.am  199  GLN199     -0.1979
    112  CA        27.5960   22.4610   35.8900 C.3   199  GLN199      0.1601
    113  C         27.6710   20.9270   35.8200 C.2   199  GLN199      0.2287
    114  O         27.2000   20.3010   34.8440 O.2   199  GLN199     -0.2864
    115  CB        28.8980   23.0770   35.3530 C.3   199  GLN199      0.0394
    116  CG        29.0540   22.7730   33.8650 C.3   199  GLN199      0.0908
    117  CD        27.9090   23.3910   33.0630 C.2   199  GLN199      0.2608
    118  OE1       27.7250   24.6050   33.0970 O.2   199  GLN199     -0.2717
    119  NE2       27.1220   22.5630   32.3630 N.am  199  GLN199     -0.0878
    120  N         24.2650   19.7750   36.0570 N.3   202  ASP202     -0.1239
    121  CA        23.5810   20.0780   34.7930 C.3   202  ASP202      0.1674
    122  C         23.9220   18.9580   33.7950 C.2   202  ASP202      0.2266
    123  O         23.0110   18.3210   33.2470 O.2   202  ASP202     -0.2867
    124  CB        24.0380   21.4480   34.2680 C.3   202  ASP202      0.1410
    125  CG        23.4100   21.8190   32.9430 C.2   202  ASP202      0.3668
    126  OD1       22.1520   21.8270   32.8530 O.co2 202  ASP202     -0.2456
    127  OD2       24.1790   22.1200   31.9910 O.co2 202  ASP202     -0.2456
    128  N         21.0100   15.8790   32.5390 N.3   206  ASN206     -0.1240
    129  CA        20.7130   15.7520   31.1210 C.3   206  ASN206      0.1653
    130  C         20.6650   14.2800   30.6430 C.2   206  ASN206      0.2266
    131  O         19.9000   13.9460   29.7520 O.2   206  ASN206     -0.2867
    132  CB        21.7790   16.5220   30.3310 C.3   206  ASN206      0.1155
    133  CG        21.3330   16.8510   28.9230 C.2   206  ASN206      0.2627
    134  OD1       21.5030   16.0650   27.9810 O.2   206  ASN206     -0.2716
    135  ND2       20.7280   18.0210   28.7730 N.am  206  ASN206     -0.0877
    136  N         22.6280   16.6480   25.2890 N.3   217  ASP217     -0.1239
    137  CA        24.0610   16.6970   25.3240 C.3   217  ASP217      0.1674
    138  C         24.7180   15.6430   24.4290 C.2   217  ASP217      0.2266
    139  O         25.8170   15.8510   23.9190 O.2   217  ASP217     -0.2867
    140  CB        24.5570   16.6100   26.7630 C.3   217  ASP217      0.1410
    141  CG        24.3410   17.9120   27.5370 C.2   217  ASP217      0.3668
    142  OD1       24.0360   18.9620   26.9290 O.co2 217  ASP217     -0.2456
    143  OD2       24.4920   17.9080   28.7690 O.co2 217  ASP217     -0.2456
    144  N         24.3740   17.1140   20.9220 N.3   220  GLU220     -0.1245
    145  CA        25.2830   18.2540   20.8120 C.3   220  GLU220      0.1567
    146  C         26.7130   17.7140   20.7000 C.2   220  GLU220      0.2260
    147  O         27.5830   18.3240   20.0640 O.2   220  GLU220     -0.2867
    148  CB        25.1620   19.1390   22.0580 C.3   220  GLU220      0.0388
    149  CG        26.0650   20.3410   22.0470 C.3   220  GLU220      0.1160
    150  CD        26.1430   21.0730   23.3920 C.2   220  GLU220      0.3649
    151  OE1       25.1490   21.0090   24.1550 O.co2 220  GLU220     -0.2457
    152  OE2       27.1820   21.7270   23.6810 O.co2 220  GLU220     -0.2457
    153  N         28.7670   17.1850   23.3370 N.3   222  LYS222     -0.1245
    154  CA        29.7220   17.8580   24.2600 C.3   222  LYS222      0.1561
    155  C         30.5300   16.9530   25.2100 C.2   222  LYS222      0.2260
    156  O         30.1130   15.8430   25.5240 O.2   222  LYS222     -0.2867
    157  CB        29.0150   18.8840   25.1320 C.3   222  LYS222      0.0271
    158  CG        28.2550   18.2350   26.2610 C.3   222  LYS222      0.0035
    159  CD        27.2220   19.1650   26.7950 C.3   222  LYS222      0.0206
    160  CE        27.8150   20.2950   27.6170 C.3   222  LYS222      0.1093
    161  NZ        26.8010   21.3410   27.6080 N.3   222  LYS222     -0.1314
@<TRIPOS>BOND
     1    33    34    2
     2    33    32    1
     3   147   146    2
     4    26    25    2
     5    31    32    1
     6   146   145    1
     7    25    24    1
     8    32    35    1
     9   145   144    1
    10   145   148    1
    11   149   148    1
    12   149   150    1
    13    24    27    1
    14    24    23    1
    15    35    36    1
    16    27    28    1
    17    18    17    2
    18    37    36   ar
    19    23    17   am
    20    17    16    1
    21    36    38   ar
    22   153   154    1
    23   150   152   ar
    24   150   151   ar
    25    15    16    1
    26    70    69    2
    27    28    29   ar
    28    28    30   ar
    29   139   138    2
    30    16    19    1
    31   154   157    1
    32   154   155    1
    33    69    68    1
    34   138   137    1
    35    61    60    2
    36    10     9    2
    37    39    40    1
    38   157   158    1
    39   155   156    2
    40   136   137    1
    41   137   140    1
    42    60    59    1
    43    19    20    1
    44     9     8    1
    45    67    68    1
    46    68    71    1
    47    63    64    1
    48    63    62    1
    49    20    21   ar
    50    20    22   ar
    51    43    40    1
    52    43    44    1
    53    65    64    2
    54     4     3    2
    55    40    41    1
    56   158   159    1
    57    74    72   ar
    58    64    66   am
    59    71    72    1
    60    62    59    1
    61    59    58    1
    62   140   141    1
    63    72    73   ar
    64   159   160    1
    65   142   141   ar
    66     3     2    1
    67     3     7   am
    68    49    47    1
    69    44    45    1
    70     8     7    1
    71     8    11    1
    72    42    41    2
    73    46    47    2
    74    46    45    1
    75     2     1    1
    76     2     5    1
    77   141   143   ar
    78   161   160    1
    79    47    48    1
    80   134   133    2
    81    11    12    1
    82     5     6    1
    83    53    52    2
    84   135   133   am
    85   133   132    1
    86    52    51    1
    87    12    14    1
    88    12    13    1
    89    81    80    1
    90    81    82    1
    91    55    57    1
    92    55    56    1
    93    55    54    1
    94   131   130    2
    95    83    82    1
    96    80    79    1
    97   132   129    1
    98    51    54    1
    99    51    50    1
   100   130   129    1
   101   129   128    1
   102    79    76    1
   103    76    75    1
   104    76    77    1
   105   127   125   ar
   106   119   117   am
   107    78    77    2
   108    77    84   am
   109   126   125   ar
   110   125   124    1
   111    97    96    1
   112   117   118    2
   113   117   116    1
   114   123   122    2
   115    98    96    1
   116    96    95    1
   117    84    85    1
   118   122   121    1
   119   116   115    1
   120    89    88    1
   121   124   121    1
   122    85    88    1
   123    85    86    1
   124   121   120    1
   125   114   113    2
   126   110   109    1
   127    88    90    1
   128    95    92    1
   129   115   112    1
   130    91    92    1
   131   108   109   ar
   132   108   106   ar
   133   113   112    1
   134    86    87    2
   135   112   111    1
   136   109   107   ar
   137    92    93    1
   138   106   104   ar
   139   102   101    2
   140   111   101   am
   141   107   105   ar
   142    93    94    2
   143   101   100    1
   144   104   105   ar
   145   104   103    1
   146   103   100    1
   147   100    99    1
