@<TRIPOS>MOLECULE
tmp/2e93A00.pdb
 202 191 0 0 0
SMALL
GASTEIGER

@<TRIPOS>ATOM
      1  N         36.8380   45.9160   17.6570 N.3    69  LEU69      -0.1231
      2  CA        35.3800   45.9160   17.6020 C.3    69  LEU69       0.1693
      3  C         34.9180   45.7580   16.1630 C.2    69  LEU69       0.2592
      4  O         33.9650   45.0420   15.8770 O.2    69  LEU69      -0.2718
      5  CB        34.8130   47.2400   18.1450 C.3    69  LEU69       0.0284
      6  CG        34.7360   47.4230   19.6570 C.3    69  LEU69       0.0019
      7  CD1       34.3370   48.8710   19.9540 C.3    69  LEU69       0.0001
      8  CD2       33.6980   46.3970   20.2700 C.3    69  LEU69       0.0001
      9  N         35.5650   46.4610   15.2520 N.am   70  HIS70      -0.1976
     10  CA        35.2060   46.3790   13.8540 C.3    70  HIS70       0.1656
     11  C         35.4010   45.0040   13.2410 C.2    70  HIS70       0.2291
     12  O         34.4770   44.4650   12.6160 O.2    70  HIS70      -0.2864
     13  CB        35.9900   47.3740   12.9780 C.3    70  HIS70       0.0771
     14  CG        35.7090   47.2220   11.5010 C.ar   70  HIS70       0.0820
     15  ND1       34.4430   47.3930   10.9540 N.ar   70  HIS70      -0.2267
     16  CD2       36.5260   46.9280   10.4570 C.ar   70  HIS70       0.1154
     17  CE1       34.4900   47.2110    9.6430 C.ar   70  HIS70       0.1986
     18  NE2       35.7430   46.9250    9.3150 N.ar   70  HIS70      -0.2212
     19  N         32.9900   42.4700   14.8220 N.3    73  SER73      -0.1202
     20  CA        31.5750   42.7160   14.4990 C.3    73  SER73       0.2020
     21  C         31.3320   42.1500   13.0740 C.2    73  SER73       0.2618
     22  O         30.1940   41.7580   12.7510 O.2    73  SER73      -0.2717
     23  CB        31.2350   44.2220   14.5060 C.3    73  SER73       0.2103
     24  OG        31.6340   44.8320   13.2830 O.3    73  SER73      -0.2182
     25  N         32.3850   42.0750   12.2500 N.am   74  LEU74      -0.1979
     26  CA        32.1770   41.5790   10.8890 C.3    74  LEU74       0.1596
     27  C         31.8880   40.0930   10.9310 C.2    74  LEU74       0.2287
     28  O         31.1410   39.5870   10.1170 O.2    74  LEU74      -0.2864
     29  CB        33.4100   41.8390    9.9810 C.3    74  LEU74       0.0297
     30  CG        33.6670   43.3190    9.6150 C.3    74  LEU74       0.0022
     31  CD1       34.7590   43.4290    8.5230 C.3    74  LEU74       0.0001
     32  CD2       32.3260   43.9560    9.1280 C.3    74  LEU74       0.0001
     33  N         30.1820   38.5710   13.1640 N.3    76  ILE76      -0.1231
     34  CA        28.7800   38.4940   13.5300 C.3    76  ILE76       0.1692
     35  C         27.8610   38.9380   12.3840 C.2    76  ILE76       0.2592
     36  O         26.7960   38.3220   12.1450 O.2    76  ILE76      -0.2718
     37  CB        28.5080   39.4040   14.7900 C.3    76  ILE76       0.0266
     38  CG1       29.1060   38.7530   16.0460 C.3    76  ILE76       0.0019
     39  CG2       26.9510   39.6420   14.9670 C.3    76  ILE76       0.0020
     40  CD1       28.3090   37.6400   16.5730 C.3    76  ILE76       0.0001
     41  N         28.2580   40.0310   11.7200 N.am   77  ASP77      -0.1974
     42  CA        27.4900   40.5890   10.6190 C.3    77  ASP77       0.1709
     43  C         27.3450   39.5150    9.5240 C.2    77  ASP77       0.2293
     44  O         26.2680   39.3150    8.9740 O.2    77  ASP77      -0.2864
     45  CB        28.2330   41.8170   10.1000 C.3    77  ASP77       0.1436
     46  CG        27.3990   42.7300    9.2010 C.2    77  ASP77       0.3671
     47  OD1       26.1450   42.9240    9.3830 O.co2  77  ASP77      -0.2456
     48  OD2       28.0480   43.3600    8.3200 O.co2  77  ASP77      -0.2456
     49  N         24.8660   36.9130   10.5720 N.3    80  GLU80      -0.1231
     50  CA        23.5460   37.5020   10.4870 C.3    80  GLU80       0.1699
     51  C         23.0310   37.6750    9.0610 C.2    80  GLU80       0.2592
     52  O         21.8300   37.6790    8.8900 O.2    80  GLU80      -0.2718
     53  CB        23.5270   38.8550   11.2090 C.3    80  GLU80       0.0402
     54  CG        23.6290   38.6650   12.7230 C.3    80  GLU80       0.1161
     55  CD        23.9370   39.9250   13.5050 C.2    80  GLU80       0.3649
     56  OE1       23.7680   39.9100   14.7560 O.co2  80  GLU80      -0.2457
     57  OE2       24.3820   40.9250   12.9240 O.co2  80  GLU80      -0.2457
     58  N         23.9340   37.8250    8.0800 N.am   81  ASP81      -0.1974
     59  CA        23.6100   38.0110    6.6380 C.3    81  ASP81       0.1709
     60  C         23.8140   36.6640    5.8510 C.2    81  ASP81       0.2293
     61  O         23.5590   36.6160    4.6360 O.2    81  ASP81      -0.2864
     62  CB        24.6200   38.9950    5.9830 C.3    81  ASP81       0.1436
     63  CG        24.4390   40.4930    6.4140 C.2    81  ASP81       0.3671
     64  OD1       23.5270   40.8650    7.2440 O.co2  81  ASP81      -0.2456
     65  OD2       25.2620   41.3260    5.9170 O.co2  81  ASP81      -0.2456
     66  N         34.1740   37.4010    2.7020 N.3    86  ARG86      -0.1245
     67  CA        34.4940   38.6050    3.4180 C.3    86  ARG86       0.1563
     68  C         35.9600   38.8110    3.1040 C.2    86  ARG86       0.2260
     69  O         36.7750   37.8910    3.2950 O.2    86  ARG86      -0.2867
     70  CB        34.2550   38.3700    4.9170 C.3    86  ARG86       0.0307
     71  CG        34.7790   39.4400    5.8430 C.3    86  ARG86       0.0489
     72  CD        34.1530   40.8170    5.6060 C.3    86  ARG86       0.2205
     73  NE        32.7930   40.9190    6.1120 N.pl3  86  ARG86      -0.0865
     74  CZ        32.0420   42.0250    6.0570 C.cat  86  ARG86       0.5346
     75  NH1       32.5330   43.1580    5.5340 N.pl3  86  ARG86       0.1354
     76  NH2       30.7860   42.0010    6.4790 N.pl3  86  ARG86       0.1354
     77  N         34.5290   41.6490   21.7990 N.3   109  TYR109     -0.1241
     78  CA        33.8240   42.8810   22.2190 C.3   109  TYR109      0.1605
     79  C         34.3180   43.2310   23.6760 C.2   109  TYR109      0.2264
     80  O         34.6320   44.3910   23.9880 O.2   109  TYR109     -0.2867
     81  CB        32.2990   42.6750   22.3200 C.3   109  TYR109      0.0534
     82  CG        31.5240   42.5400   21.0190 C.ar  109  TYR109     -0.0201
     83  CD1       30.1870   42.2020   21.0440 C.ar  109  TYR109     -0.0009
     84  CD2       32.1400   42.6990   19.7830 C.ar  109  TYR109     -0.0009
     85  CE1       29.4850   42.0040   19.8980 C.ar  109  TYR109      0.0417
     86  CE2       31.4600   42.5070   18.6020 C.ar  109  TYR109      0.0417
     87  CZ        30.1360   42.1510   18.6590 C.ar  109  TYR109      0.1957
     88  OH        29.4570   41.8840   17.4880 O.3   109  TYR109     -0.2866
     89  N         27.5370   51.2130   21.5550 N.3   137  LEU137     -0.1245
     90  CA        27.3450   49.7660   21.3890 C.3   137  LEU137      0.1561
     91  C         25.8180   49.5510   21.4410 C.2   137  LEU137      0.2260
     92  O         25.2740   48.7670   20.7190 O.2   137  LEU137     -0.2867
     93  CB        28.0670   48.9650   22.5010 C.3   137  LEU137      0.0270
     94  CG        29.4580   48.3280   22.1770 C.3   137  LEU137      0.0019
     95  CD1       29.3010   47.2860   21.0700 C.3   137  LEU137      0.0001
     96  CD2       30.4370   49.3430   21.6580 C.3   137  LEU137      0.0001
     97  N         24.5380   50.8300   18.0600 N.3   140  LEU140     -0.1231
     98  CA        24.9260   49.9030   17.0430 C.3   140  LEU140      0.1693
     99  C         23.9700   48.7310   16.9860 C.2   140  LEU140      0.2592
    100  O         23.5360   48.3670   15.9110 O.2   140  LEU140     -0.2718
    101  CB        26.3700   49.3850   17.2970 C.3   140  LEU140      0.0284
    102  CG        27.4260   50.4180   16.8600 C.3   140  LEU140      0.0019
    103  CD1       28.8130   50.2570   17.5900 C.3   140  LEU140      0.0001
    104  CD2       27.6120   50.2230   15.3550 C.3   140  LEU140      0.0001
    105  N         23.6690   48.1320   18.1290 N.am  141  HIS141     -0.1976
    106  CA        22.7820   46.9710   18.1350 C.3   141  HIS141      0.1656
    107  C         21.3160   47.3710   17.8200 C.2   141  HIS141      0.2291
    108  O         20.5900   46.6100   17.1970 O.2   141  HIS141     -0.2864
    109  CB        22.9040   46.2360   19.4840 C.3   141  HIS141      0.0771
    110  CG        24.2390   45.5770   19.6900 C.ar  141  HIS141      0.0820
    111  ND1       24.4610   44.2480   19.4120 N.ar  141  HIS141     -0.2267
    112  CD2       25.4380   46.0820   20.0650 C.ar  141  HIS141      0.1154
    113  CE1       25.7370   43.9570   19.6120 C.ar  141  HIS141      0.1986
    114  NE2       26.3490   45.0580   20.0050 N.ar  141  HIS141     -0.2212
    115  N         21.2880   47.6020   13.9130 N.3   144  GLN144     -0.1245
    116  CA        21.4720   46.2990   13.2740 C.3   144  GLN144      0.1566
    117  C         20.2080   45.5000   13.5520 C.2   144  GLN144      0.2260
    118  O         19.7650   44.7790   12.6900 O.2   144  GLN144     -0.2867
    119  CB        22.6920   45.5410   13.8430 C.3   144  GLN144      0.0367
    120  CG        22.9100   44.0890   13.2760 C.3   144  GLN144      0.0905
    121  CD        23.3720   44.0950   11.8200 C.2   144  GLN144      0.2608
    122  OE1       23.2900   45.1200   11.1550 O.2   144  GLN144     -0.2717
    123  NE2       23.8320   42.9530   11.3130 N.am  144  GLN144     -0.0878
    124  N         23.1640   52.5040   13.4960 N.3   171  LYS171     -0.1231
    125  CA        24.1520   51.4910   13.1900 C.3   171  LYS171      0.1693
    126  C         25.4830   52.0770   12.7350 C.2   171  LYS171      0.2592
    127  O         26.3850   52.2440   13.5560 O.2   171  LYS171     -0.2718
    128  CB        23.5910   50.5000   12.1310 C.3   171  LYS171      0.0285
    129  CG        24.5530   49.3680   11.8070 C.3   171  LYS171      0.0035
    130  CD        24.0880   48.4730   10.6510 C.3   171  LYS171      0.0206
    131  CE        25.2570   47.5560   10.2240 C.3   171  LYS171      0.1093
    132  NZ        24.8190   46.5480    9.2000 N.3   171  LYS171     -0.1314
    133  N         25.5800   52.4450   11.4610 N.am  172  THR172     -0.1953
    134  CA        26.8550   52.9250   10.9590 C.3   172  THR172      0.1897
    135  C         27.3080   54.2130   11.6440 C.2   172  THR172      0.2313
    136  O         28.4910   54.4100   11.8590 O.2   172  THR172     -0.2863
    137  CB        26.8110   53.0990    9.4380 C.3   172  THR172      0.1794
    138  OG1       26.3240   51.8820    8.8690 O.3   172  THR172     -0.2208
    139  CG2       28.2200   53.3390    8.8640 C.3   172  THR172      0.0378
    140  N         29.4210   53.4350   14.9730 N.3   175  LEU175     -0.1245
    141  CA        30.8660   53.1540   14.9280 C.3   175  LEU175      0.1561
    142  C         31.6410   54.4340   14.6190 C.2   175  LEU175      0.2260
    143  O         32.6870   54.6630   15.1920 O.2   175  LEU175     -0.2867
    144  CB        31.2110   52.1270   13.8370 C.3   175  LEU175      0.0270
    145  CG        32.7120   51.7220   13.8390 C.3   175  LEU175      0.0019
    146  CD1       33.1540   51.3640   15.2660 C.3   175  LEU175      0.0001
    147  CD2       32.9160   50.5240   12.9640 C.3   175  LEU175      0.0001
    148  N         28.9180   56.9120    3.7690 N.3   202  TYR202     -0.1227
    149  CA        29.6030   55.6390    3.6950 C.3   202  TYR202      0.1736
    150  C         28.6770   54.4240    3.4870 C.2   202  TYR202      0.2595
    151  O         28.9190   53.5690    2.6380 O.2   202  TYR202     -0.2718
    152  CB        30.4190   55.4150    4.9660 C.3   202  TYR202      0.0548
    153  CG        31.3590   54.2910    4.7470 C.ar  202  TYR202     -0.0200
    154  CD1       32.5540   54.5090    4.0320 C.ar  202  TYR202     -0.0009
    155  CD2       31.0580   53.0150    5.1910 C.ar  202  TYR202     -0.0009
    156  CE1       33.4290   53.4690    3.7760 C.ar  202  TYR202      0.0417
    157  CE2       31.9100   51.9660    4.9340 C.ar  202  TYR202      0.0417
    158  CZ        33.0920   52.2030    4.2370 C.ar  202  TYR202      0.1957
    159  OH        33.9910   51.1920    4.0180 O.3   202  TYR202     -0.2866
    160  N         27.6330   54.3630    4.2790 N.am  203  GLN203     -0.1979
    161  CA        26.7110   53.2660    4.1780 C.3   203  GLN203      0.1601
    162  C         25.9270   53.2760    2.8470 C.2   203  GLN203      0.2287
    163  O         25.7370   52.2320    2.1920 O.2   203  GLN203     -0.2864
    164  CB        25.7460   53.2750    5.3810 C.3   203  GLN203      0.0394
    165  CG        24.8600   52.0140    5.3990 C.3   203  GLN203      0.0908
    166  CD        25.7030   50.7380    5.5190 C.2   203  GLN203      0.2608
    167  OE1       26.4510   50.5800    6.4700 O.2   203  GLN203     -0.2717
    168  NE2       25.5910   49.8420    4.5550 N.am  203  GLN203     -0.0878
    169  N         28.2310   52.2710    0.1430 N.3   206  ASP206     -0.1225
    170  CA        28.4810   50.8490    0.3160 C.3   206  ASP206      0.1805
    171  C         27.2860   50.0550   -0.3160 C.2   206  ASP206      0.2597
    172  O         27.5010   49.1060   -1.0990 O.2   206  ASP206     -0.2718
    173  CB        28.6370   50.6030    1.8230 C.3   206  ASP206      0.1424
    174  CG        28.9010   49.1420    2.1810 C.2   206  ASP206      0.3668
    175  OD1       29.1490   48.8310    3.3610 O.co2 206  ASP206     -0.2456
    176  OD2       28.8600   48.2820    1.3100 O.co2 206  ASP206     -0.2456
    177  N         26.0460   50.4840   -0.0360 N.am  207  ASP207     -0.1974
    178  CA        24.8400   49.8410   -0.6040 C.3   207  ASP207      0.1709
    179  C         24.8730   49.9810   -2.1450 C.2   207  ASP207      0.2293
    180  O         24.5980   49.0520   -2.8990 O.2   207  ASP207     -0.2864
    181  CB        23.5550   50.5260   -0.1100 C.3   207  ASP207      0.1436
    182  CG        23.2440   50.2370    1.3500 C.2   207  ASP207      0.3671
    183  OD1       22.2360   50.7880    1.8580 O.co2 207  ASP207     -0.2456
    184  OD2       24.0050   49.4860    1.9920 O.co2 207  ASP207     -0.2456
    185  N         32.8670   40.2010   -1.9360 N.3   215  LYS215     -0.1245
    186  CA        31.7480   39.6880   -1.1770 C.3   215  LYS215      0.1561
    187  C         30.8690   38.8780   -2.1450 C.2   215  LYS215      0.2260
    188  O         29.8710   38.2990   -1.7230 O.2   215  LYS215     -0.2867
    189  CB        30.9160   40.8420   -0.5950 C.3   215  LYS215      0.0271
    190  CG        31.6810   41.8210    0.2960 C.3   215  LYS215      0.0035
    191  CD        30.8190   43.0450    0.7210 C.3   215  LYS215      0.0206
    192  CE        31.6820   44.1250    1.3960 C.3   215  LYS215      0.1093
    193  NZ        30.9800   45.4160    1.6560 N.3   215  LYS215     -0.1314
    194  N         18.6470   42.3580    1.6570 N.3   225  LYS225     -0.1245
    195  CA        18.7580   43.6220    2.3940 C.3   225  LYS225      0.1561
    196  C         17.8760   44.7440    1.9000 C.2   225  LYS225      0.2260
    197  O         17.6970   44.9000    0.6950 O.2   225  LYS225     -0.2867
    198  CB        20.2030   44.1460    2.3430 C.3   225  LYS225      0.0271
    199  CG        21.2870   43.1800    2.8270 C.3   225  LYS225      0.0035
    200  CD        22.6940   43.8470    2.9500 C.3   225  LYS225      0.0206
    201  CE        22.5690   45.3370    3.2750 C.3   225  LYS225      0.1093
    202  NZ        21.6340   45.5620    4.4520 N.3   225  LYS225     -0.1314
@<TRIPOS>BOND
     1   180   179    2
     2   179   178    1
     3   187   188    2
     4   187   186    1
     5   185   186    1
     6   186   189    1
     7   172   171    2
     8   178   181    1
     9   178   177    1
    10   189   190    1
    11   171   177   am
    12   171   170    1
    13   181   182    1
    14   169   170    1
    15   190   191    1
    16   170   173    1
    17   197   196    2
    18   191   192    1
    19   176   174   ar
    20   182   183   ar
    21   182   184   ar
    22   192   193    1
    23   194   195    1
    24   173   174    1
    25   196   195    1
    26   174   175   ar
    27   163   162    2
    28   198   195    1
    29   198   199    1
    30   151   150    2
    31    66    67    1
    32   199   200    1
    33   162   161    1
    34   200   201    1
    35    68    69    2
    36    68    67    1
    37   201   202    1
    38    67    70    1
    39   150   149    1
    40   150   160   am
    41   149   148    1
    42   149   152    1
    43   156   154   ar
    44   156   158   ar
    45   159   158    1
    46   154   153   ar
    47   161   160    1
    48   161   164    1
    49   158   157   ar
    50   168   166   am
    51    61    60    2
    52   153   152    1
    53   153   155   ar
    54    70    71    1
    55   157   155   ar
    56   164   165    1
    57   165   166    1
    58   166   167    2
    59    75    74    1
    60    72    71    1
    61    72    73    1
    62    60    59    1
    63    65    63   ar
    64    62    63    1
    65    62    59    1
    66    74    73    2
    67    74    76    1
    68    63    64   ar
    69    59    58    1
    70    58    51   am
    71    48    46   ar
    72    31    30    1
    73   139   137    1
    74   138   137    1
    75    52    51    2
    76    44    43    2
    77    51    50    1
    78    32    30    1
    79   132   131    1
    80    46    47   ar
    81    46    45    1
    82    18    17   ar
    83    18    16   ar
    84   137   134    1
    85    43    42    1
    86    30    29    1
    87    17    15   ar
    88    29    26    1
    89    45    42    1
    90    28    27    2
    91   131   130    1
    92    16    14   ar
    93    50    49    1
    94    50    53    1
    95    42    41    1
    96   130   129    1
    97    26    27    1
    98    26    25    1
    99    15    14   ar
   100   134   133    1
   101   134   135    1
   102   122   121    2
   103    53    54    1
   104   123   121   am
   105   133   126   am
   106    14    13    1
   107   135   136    2
   108    41    35   am
   109   129   128    1
   110   121   120    1
   111   128   125    1
   112    36    35    2
   113    25    21   am
   114    35    34    1
   115    12    11    2
   116   118   117    2
   117    54    55    1
   118   126   125    1
   119   126   127    2
   120    22    21    2
   121    57    55   ar
   122   147   145    1
   123    13    10    1
   124    21    20    1
   125    33    34    1
   126   125   124    1
   127    11    10    1
   128   116   117    1
   129   116   119    1
   130   116   115    1
   131   120   119    1
   132    24    23    1
   133    55    56   ar
   134    34    37    1
   135   144   145    1
   136   144   141    1
   137   145   146    1
   138    10     9    1
   139    20    23    1
   140    20    19    1
   141   142   141    1
   142   142   143    2
   143    37    39    1
   144    37    38    1
   145   141   140    1
   146     9     3   am
   147   104   102    1
   148     4     3    2
   149   100    99    2
   150    38    40    1
   151     3     2    1
   152   102   101    1
   153   102   103    1
   154    99    98    1
   155    99   105   am
   156    98   101    1
   157    98    97    1
   158   108   107    2
   159    88    87    1
   160     2     1    1
   161     2     5    1
   162   107   106    1
   163   105   106    1
   164   106   109    1
   165     5     6    1
   166    86    87   ar
   167    86    84   ar
   168    87    85   ar
   169   111   113   ar
   170   111   110   ar
   171   109   110    1
   172   113   114   ar
   173     6     7    1
   174     6     8    1
   175   110   112   ar
   176    84    82   ar
   177    85    83   ar
   178   114   112   ar
   179    92    91    2
   180    82    83   ar
   181    82    81    1
   182    95    94    1
   183    90    91    1
   184    90    89    1
   185    90    93    1
   186    96    94    1
   187    77    78    1
   188    94    93    1
   189    78    81    1
   190    78    79    1
   191    79    80    2
