@<TRIPOS>MOLECULE
tmp/2e93A01.pdb
 189 178 0 0 0
SMALL
GASTEIGER

@<TRIPOS>ATOM
      1  N         41.9970   44.7450    5.8120 N.3    37  GLY37      -0.1210
      2  CA        40.7360   45.4470    5.6110 C.3    37  GLY37       0.1956
      3  C         41.0540   46.8550    5.0860 C.2    37  GLY37       0.2611
      4  O         42.2190   47.1600    4.8230 O.2    37  GLY37      -0.2717
      5  N         40.0650   47.7240    4.9050 N.am   38  LYS38      -0.1979
      6  CA        40.4120   49.0630    4.4510 C.3    38  LYS38       0.1596
      7  C         41.3740   49.5700    5.5240 C.2    38  LYS38       0.2287
      8  O         41.0050   49.7870    6.6890 O.2    38  LYS38      -0.2864
      9  CB        39.1740   49.9630    4.3310 C.3    38  LYS38       0.0298
     10  CG        38.1030   49.4310    3.3730 C.3    38  LYS38       0.0038
     11  CD        38.7290   48.9930    2.0600 C.3    38  LYS38       0.0206
     12  CE        37.7870   48.0730    1.2790 C.3    38  LYS38       0.1093
     13  NZ        38.3950   47.4420    0.0450 N.3    38  LYS38      -0.1314
     14  N         41.6720   52.9640    7.3370 N.3    41  ARG41      -0.1231
     15  CA        40.9320   53.2310    8.5630 C.3    41  ARG41       0.1694
     16  C         41.7930   53.9140    9.6020 C.2    41  ARG41       0.2591
     17  O         41.3830   54.9210   10.1730 O.2    41  ARG41      -0.2718
     18  CB        40.3440   51.9600    9.1270 C.3    41  ARG41       0.0321
     19  CG        39.0920   51.6650    8.4150 C.3    41  ARG41       0.0489
     20  CD        38.2190   52.8940    8.4710 C.3    41  ARG41       0.2205
     21  NE        37.2260   52.8340    7.4220 N.pl3  41  ARG41      -0.0865
     22  CZ        36.2130   53.6710    7.3270 C.cat  41  ARG41       0.5346
     23  NH1       36.0580   54.6320    8.2220 N.pl3  41  ARG41       0.1354
     24  NH2       35.3600   53.5390    6.3370 N.pl3  41  ARG41       0.1354
     25  N         42.9780   53.3660    9.8590 N.am   42  LEU42      -0.1980
     26  CA        43.8830   54.0200   10.7940 C.3    42  LEU42       0.1596
     27  C         44.1800   55.3450   10.0870 C.2    42  LEU42       0.2287
     28  O         44.5350   56.3150   10.7270 O.2    42  LEU42      -0.2864
     29  CB        45.1600   53.2050   11.0170 C.3    42  LEU42       0.0297
     30  CG        45.5360   53.1110   12.5010 C.3    42  LEU42       0.0022
     31  CD1       44.7790   51.9300   13.1300 C.3    42  LEU42       0.0001
     32  CD2       47.0650   52.9610   12.6690 C.3    42  LEU42       0.0001
     33  N         41.8220   57.2570    8.5080 N.3    44  LEU44      -0.1231
     34  CA        40.7220   58.1590    8.9860 C.3    44  LEU44       0.1693
     35  C         41.0040   58.6560   10.4200 C.2    44  LEU44       0.2591
     36  O         40.7890   59.8210   10.7620 O.2    44  LEU44      -0.2718
     37  CB        39.3570   57.4320    9.0560 C.3    44  LEU44       0.0284
     38  CG        38.3480   58.0470   10.0690 C.3    44  LEU44       0.0019
     39  CD1       37.3630   58.9750    9.3730 C.3    44  LEU44       0.0001
     40  CD2       37.5820   56.9420   10.7870 C.3    44  LEU44       0.0001
     41  N         41.4420   57.7340   11.2590 N.am   45  ILE45      -0.1980
     42  CA        41.7640   58.0690   12.6090 C.3    45  ILE45       0.1595
     43  C         42.9700   59.0330   12.6240 C.2    45  ILE45       0.2287
     44  O         43.0280   59.9530   13.4480 O.2    45  ILE45      -0.2864
     45  CB        42.0370   56.7980   13.4340 C.3    45  ILE45       0.0276
     46  CG1       40.7470   55.9690   13.5160 C.3    45  ILE45       0.0022
     47  CG2       42.4890   57.1590   14.8460 C.3    45  ILE45       0.0022
     48  CD1       40.7390   54.9030   14.5870 C.3    45  ILE45       0.0001
     49  N         42.9050   53.2690   18.3090 N.3    63  SER63      -0.1217
     50  CA        42.8560   52.5660   17.0480 C.3    63  SER63       0.1889
     51  C         42.6760   51.0540   17.2010 C.2    63  SER63       0.2288
     52  O         41.9280   50.4130   16.4460 O.2    63  SER63      -0.2866
     53  CB        44.1070   52.8640   16.2300 C.3    63  SER63       0.2089
     54  OG        44.0070   54.1930   15.7540 O.3    63  SER63      -0.2183
     55  N         38.9840   50.2320   18.2460 N.3    66  VAL66      -0.1231
     56  CA        38.0410   50.3290   17.1480 C.3    66  VAL66       0.1692
     57  C         38.2610   49.2180   16.1020 C.2    66  VAL66       0.2591
     58  O         37.3050   48.6600   15.5300 O.2    66  VAL66      -0.2718
     59  CB        38.0950   51.7080   16.4910 C.3    66  VAL66       0.0266
     60  CG1       37.1060   51.7510   15.3440 C.3    66  VAL66       0.0020
     61  CG2       37.6820   52.7980   17.5340 C.3    66  VAL66       0.0020
     62  N         39.5230   48.9100   15.8600 N.am   67  GLU67      -0.1979
     63  CA        39.8920   47.8470   14.9300 C.3    67  GLU67       0.1602
     64  C         39.3730   46.4860   15.4430 C.2    67  GLU67       0.2287
     65  O         38.8630   45.6860   14.7010 O.2    67  GLU67      -0.2864
     66  CB        41.4050   47.7340   14.8290 C.3    67  GLU67       0.0415
     67  CG        41.8770   46.9210   13.6400 C.3    67  GLU67       0.1163
     68  CD        43.2960   46.3710   13.8260 C.2    67  GLU67       0.3649
     69  OE1       44.1040   47.0180   14.5600 O.co2  67  GLU67      -0.2457
     70  OE2       43.5940   45.2930   13.2270 O.co2  67  GLU67      -0.2457
     71  N         35.5650   46.4610   15.2520 N.3    70  HIS70      -0.1226
     72  CA        35.2060   46.3790   13.8540 C.3    70  HIS70       0.1752
     73  C         35.4010   45.0040   13.2410 C.2    70  HIS70       0.2596
     74  O         34.4770   44.4650   12.6160 O.2    70  HIS70      -0.2718
     75  CB        35.9900   47.3740   12.9780 C.3    70  HIS70       0.0759
     76  CG        35.7090   47.2220   11.5010 C.ar   70  HIS70       0.0818
     77  ND1       34.4430   47.3930   10.9540 N.ar   70  HIS70      -0.2268
     78  CD2       36.5260   46.9280   10.4570 C.ar   70  HIS70       0.1154
     79  CE1       34.4900   47.2110    9.6430 C.ar   70  HIS70       0.1986
     80  NE2       35.7430   46.9250    9.3150 N.ar   70  HIS70      -0.2212
     81  N         36.6060   44.4510   13.3780 N.am   71  ASN71      -0.1974
     82  CA        36.8790   43.1160   12.8070 C.3    71  ASN71       0.1688
     83  C         35.9340   42.0210   13.3980 C.2    71  ASN71       0.2292
     84  O         35.4140   41.1600   12.6970 O.2    71  ASN71      -0.2864
     85  CB        38.3650   42.6800   13.0420 C.3    71  ASN71       0.1181
     86  CG        39.3650   43.4810   12.1970 C.2    71  ASN71       0.2629
     87  OD1       39.0190   44.0220   11.1620 O.2    71  ASN71      -0.2716
     88  ND2       40.5890   43.5570   12.6500 N.am   71  ASN71      -0.0877
     89  N         32.3850   42.0750   12.2500 N.3    74  LEU74      -0.1245
     90  CA        32.1770   41.5790   10.8890 C.3    74  LEU74       0.1561
     91  C         31.8880   40.0930   10.9310 C.2    74  LEU74       0.2260
     92  O         31.1410   39.5870   10.1170 O.2    74  LEU74      -0.2867
     93  CB        33.4100   41.8390    9.9810 C.3    74  LEU74       0.0270
     94  CG        33.6670   43.3190    9.6150 C.3    74  LEU74       0.0019
     95  CD1       34.7590   43.4290    8.5230 C.3    74  LEU74       0.0001
     96  CD2       32.3260   43.9560    9.1280 C.3    74  LEU74       0.0001
     97  N         34.1740   37.4010    2.7020 N.3    86  ARG86      -0.1231
     98  CA        34.4940   38.6050    3.4180 C.3    86  ARG86       0.1694
     99  C         35.9600   38.8110    3.1040 C.2    86  ARG86       0.2591
    100  O         36.7750   37.8910    3.2950 O.2    86  ARG86      -0.2718
    101  CB        34.2550   38.3700    4.9170 C.3    86  ARG86       0.0321
    102  CG        34.7790   39.4400    5.8430 C.3    86  ARG86       0.0489
    103  CD        34.1530   40.8170    5.6060 C.3    86  ARG86       0.2205
    104  NE        32.7930   40.9190    6.1120 N.pl3  86  ARG86      -0.0865
    105  CZ        32.0420   42.0250    6.0570 C.cat  86  ARG86       0.5346
    106  NH1       32.5330   43.1580    5.5340 N.pl3  86  ARG86       0.1354
    107  NH2       30.7860   42.0010    6.4790 N.pl3  86  ARG86       0.1354
    108  N         36.2850   39.9840    2.5570 N.am   87  ARG87      -0.1980
    109  CA        37.6510   40.3260    2.1850 C.3    87  ARG87       0.1597
    110  C         38.1870   39.2840    1.1910 C.2    87  ARG87       0.2287
    111  O         39.3600   38.9080    1.2670 O.2    87  ARG87      -0.2864
    112  CB        38.5670   40.3770    3.4190 C.3    87  ARG87       0.0334
    113  CG        38.2160   41.5070    4.3950 C.3    87  ARG87       0.0492
    114  CD        39.1350   41.5790    5.5940 C.3    87  ARG87       0.2205
    115  NE        38.6530   42.6330    6.4710 N.pl3  87  ARG87      -0.0865
    116  CZ        39.0900   42.8850    7.6840 C.cat  87  ARG87       0.5346
    117  NH1       40.0590   42.1460    8.1960 N.pl3  87  ARG87       0.1354
    118  NH2       38.5580   43.8990    8.3730 N.pl3  87  ARG87       0.1354
    119  N         25.5800   52.4450   11.4610 N.3   172  THR172     -0.1218
    120  CA        26.8550   52.9250   10.9590 C.3   172  THR172      0.1862
    121  C         27.3080   54.2130   11.6440 C.2   172  THR172      0.2287
    122  O         28.4910   54.4100   11.8590 O.2   172  THR172     -0.2866
    123  CB        26.8110   53.0990    9.4380 C.3   172  THR172      0.1770
    124  OG1       26.3240   51.8820    8.8690 O.3   172  THR172     -0.2211
    125  CG2       28.2200   53.3390    8.8640 C.3   172  THR172      0.0375
    126  N         29.4210   53.4350   14.9730 N.3   175  LEU175     -0.1231
    127  CA        30.8660   53.1540   14.9280 C.3   175  LEU175      0.1693
    128  C         31.6410   54.4340   14.6190 C.2   175  LEU175      0.2592
    129  O         32.6870   54.6630   15.1920 O.2   175  LEU175     -0.2718
    130  CB        31.2110   52.1270   13.8370 C.3   175  LEU175      0.0284
    131  CG        32.7120   51.7220   13.8390 C.3   175  LEU175      0.0019
    132  CD1       33.1540   51.3640   15.2660 C.3   175  LEU175      0.0001
    133  CD2       32.9160   50.5240   12.9640 C.3   175  LEU175      0.0001
    134  N         31.1350   55.2690   13.7240 N.am  176  PHE176     -0.1976
    135  CA        31.8630   56.5150   13.4520 C.3   176  PHE176      0.1639
    136  C         31.8440   57.3970   14.6820 C.2   176  PHE176      0.2290
    137  O         32.8810   57.9430   15.0460 O.2   176  PHE176     -0.2864
    138  CB        31.2810   57.2500   12.2530 C.3   176  PHE176      0.0560
    139  CG        31.7100   56.6730   10.9160 C.ar  176  PHE176     -0.0200
    140  CD1       32.7670   57.2390   10.2040 C.ar  176  PHE176     -0.0042
    141  CD2       31.0530   55.5710   10.3620 C.ar  176  PHE176     -0.0042
    142  CE1       33.1550   56.7110    8.9520 C.ar  176  PHE176     -0.0003
    143  CE2       31.4430   55.0560    9.1310 C.ar  176  PHE176     -0.0003
    144  CZ        32.4850   55.6250    8.4340 C.ar  176  PHE176     -0.0000
    145  N         34.3050   56.1320   17.4490 N.3   179  THR179     -0.1218
    146  CA        35.6740   56.5380   17.2250 C.3   179  THR179      0.1862
    147  C         35.8940   58.0600   17.5390 C.2   179  THR179      0.2287
    148  O         36.8380   58.4530   18.2630 O.2   179  THR179     -0.2866
    149  CB        36.0410   56.2970   15.7920 C.3   179  THR179      0.1770
    150  OG1       35.6750   54.9630   15.4290 O.3   179  THR179     -0.2211
    151  CG2       37.5470   56.5250   15.5790 C.3   179  THR179      0.0375
    152  N         28.9180   56.9120    3.7690 N.3   202  TYR202     -0.1227
    153  CA        29.6030   55.6390    3.6950 C.3   202  TYR202      0.1736
    154  C         28.6770   54.4240    3.4870 C.2   202  TYR202      0.2595
    155  O         28.9190   53.5690    2.6380 O.2   202  TYR202     -0.2718
    156  CB        30.4190   55.4150    4.9660 C.3   202  TYR202      0.0548
    157  CG        31.3590   54.2910    4.7470 C.ar  202  TYR202     -0.0200
    158  CD1       32.5540   54.5090    4.0320 C.ar  202  TYR202     -0.0009
    159  CD2       31.0580   53.0150    5.1910 C.ar  202  TYR202     -0.0009
    160  CE1       33.4290   53.4690    3.7760 C.ar  202  TYR202      0.0417
    161  CE2       31.9100   51.9660    4.9340 C.ar  202  TYR202      0.0417
    162  CZ        33.0920   52.2030    4.2370 C.ar  202  TYR202      0.1957
    163  OH        33.9910   51.1920    4.0180 O.3   202  TYR202     -0.2866
    164  N         27.6330   54.3630    4.2790 N.am  203  GLN203     -0.1979
    165  CA        26.7110   53.2660    4.1780 C.3   203  GLN203      0.1601
    166  C         25.9270   53.2760    2.8470 C.2   203  GLN203      0.2287
    167  O         25.7370   52.2320    2.1920 O.2   203  GLN203     -0.2864
    168  CB        25.7460   53.2750    5.3810 C.3   203  GLN203      0.0394
    169  CG        24.8600   52.0140    5.3990 C.3   203  GLN203      0.0908
    170  CD        25.7030   50.7380    5.5190 C.2   203  GLN203      0.2608
    171  OE1       26.4510   50.5800    6.4700 O.2   203  GLN203     -0.2717
    172  NE2       25.5910   49.8420    4.5550 N.am  203  GLN203     -0.0878
    173  N         28.2310   52.2710    0.1430 N.3   206  ASP206     -0.1239
    174  CA        28.4810   50.8490    0.3160 C.3   206  ASP206      0.1674
    175  C         27.2860   50.0550   -0.3160 C.2   206  ASP206      0.2266
    176  O         27.5010   49.1060   -1.0990 O.2   206  ASP206     -0.2867
    177  CB        28.6370   50.6030    1.8230 C.3   206  ASP206      0.1410
    178  CG        28.9010   49.1420    2.1810 C.2   206  ASP206      0.3668
    179  OD1       29.1490   48.8310    3.3610 O.co2 206  ASP206     -0.2456
    180  OD2       28.8600   48.2820    1.3100 O.co2 206  ASP206     -0.2456
    181  N         32.8670   40.2010   -1.9360 N.3   215  LYS215     -0.1245
    182  CA        31.7480   39.6880   -1.1770 C.3   215  LYS215      0.1561
    183  C         30.8690   38.8780   -2.1450 C.2   215  LYS215      0.2260
    184  O         29.8710   38.2990   -1.7230 O.2   215  LYS215     -0.2867
    185  CB        30.9160   40.8420   -0.5950 C.3   215  LYS215      0.0271
    186  CG        31.6810   41.8210    0.2960 C.3   215  LYS215      0.0035
    187  CD        30.8190   43.0450    0.7210 C.3   215  LYS215      0.0206
    188  CE        31.6820   44.1250    1.3960 C.3   215  LYS215      0.1093
    189  NZ        30.9800   45.4160    1.6560 N.3   215  LYS215     -0.1314
@<TRIPOS>BOND
     1   183   184    2
     2   183   182    1
     3   181   182    1
     4   182   185    1
     5   176   175    2
     6   185   186    1
     7   175   174    1
     8    13    12    1
     9   173   174    1
    10   186   187    1
    11   174   177    1
    12   187   188    1
    13   110   111    2
    14   110   109    1
    15    12    11    1
    16   180   178   ar
    17   188   189    1
    18   177   178    1
    19    11    10    1
    20   178   179   ar
    21   109   108    1
    22   109   112    1
    23   167   166    2
    24   108    99   am
    25   155   154    2
    26    97    98    1
    27   166   165    1
    28    99   100    2
    29    99    98    1
    30    10     9    1
    31    98   101    1
    32   112   113    1
    33   154   153    1
    34   154   164   am
    35   153   152    1
    36   153   156    1
    37   160   158   ar
    38   160   162   ar
    39   163   162    1
    40   158   157   ar
    41   165   164    1
    42   165   168    1
    43   162   161   ar
    44     9     6    1
    45   113   114    1
    46     6     5    1
    47     6     7    1
    48   172   170   am
    49   157   156    1
    50   157   159   ar
    51     4     3    2
    52     5     3   am
    53   101   102    1
    54   161   159   ar
    55     3     2    1
    56   168   169    1
    57   169   170    1
    58   170   171    2
    59     7     8    2
    60   106   105    1
    61   114   115    1
    62   103   102    1
    63   103   104    1
    64     2     1    1
    65   105   104    2
    66   105   107    1
    67    24    22    1
    68   115   116    2
    69    22    21    2
    70    22    23    1
    71    14    15    1
    72    21    20    1
    73   116   117    1
    74   116   118    1
    75    19    20    1
    76    19    18    1
    77   144   142   ar
    78   144   143   ar
    79    33    34    1
    80    95    94    1
    81    15    18    1
    82    15    16    1
    83   125   123    1
    84   124   123    1
    85   142   140   ar
    86    34    37    1
    87    34    35    1
    88    37    38    1
    89    96    94    1
    90   143   141   ar
    91    80    79   ar
    92    80    78   ar
    93    39    38    1
    94   123   120    1
    95    16    25   am
    96    16    17    2
    97    94    93    1
    98    79    77   ar
    99    25    26    1
   100    93    90    1
   101    38    40    1
   102    27    28    2
   103    27    26    1
   104    92    91    2
   105   140   139   ar
   106   141   139   ar
   107    35    36    2
   108    35    41   am
   109    78    76   ar
   110    26    29    1
   111    90    91    1
   112    90    89    1
   113   139   138    1
   114    77    76   ar
   115   120   119    1
   116   120   121    1
   117    29    30    1
   118    87    86    2
   119    41    42    1
   120    76    75    1
   121   121   122    2
   122    86    88   am
   123    86    85    1
   124   138   135    1
   125    30    32    1
   126    30    31    1
   127    42    43    1
   128    42    45    1
   129    74    73    2
   130    43    44    2
   131    84    83    2
   132    82    85    1
   133    82    81    1
   134    82    83    1
   135   133   131    1
   136    75    72    1
   137    70    68   ar
   138    73    81   am
   139    73    72    1
   140    45    46    1
   141    45    47    1
   142   135   134    1
   143   135   136    1
   144    46    48    1
   145    67    68    1
   146    67    66    1
   147   134   128   am
   148    68    69   ar
   149   130   131    1
   150   130   127    1
   151   131   132    1
   152    72    71    1
   153   128   127    1
   154   128   129    2
   155   136   137    2
   156    65    64    2
   157    66    63    1
   158   127   126    1
   159    63    64    1
   160    63    62    1
   161    60    59    1
   162   150   149    1
   163    58    57    2
   164   151   149    1
   165    54    53    1
   166   149   146    1
   167    62    57   am
   168    57    56    1
   169    53    50    1
   170    52    51    2
   171    59    56    1
   172    59    61    1
   173    50    51    1
   174    50    49    1
   175    56    55    1
   176   146   145    1
   177   146   147    1
   178   147   148    2
