@<TRIPOS>MOLECULE
tmp/2e94B00.pdb
 207 191 0 0 0
SMALL
GASTEIGER

@<TRIPOS>ATOM
      1  N         16.9880   32.6070   41.0060 N.3    42  ARG42      -0.1245
      2  CA        18.1870   33.3630   40.7140 C.3    42  ARG42       0.1563
      3  C         18.1510   34.6420   41.5560 C.2    42  ARG42       0.2260
      4  O         19.1840   35.1370   41.9930 O.2    42  ARG42      -0.2867
      5  CB        18.2180   33.6640   39.2160 C.3    42  ARG42       0.0307
      6  CG        19.4260   34.4080   38.7140 C.3    42  ARG42       0.0489
      7  CD        19.5160   34.2790   37.1980 C.3    42  ARG42       0.2205
      8  NE        18.2070   34.3310   36.5370 N.pl3  42  ARG42      -0.0865
      9  CZ        17.4580   33.2670   36.2400 C.cat  42  ARG42       0.5346
     10  NH1       17.8790   32.0440   36.5430 N.pl3  42  ARG42       0.1354
     11  NH2       16.2880   33.4250   35.6310 N.pl3  42  ARG42       0.1354
     12  N         18.6980   33.5030   45.3190 N.3    45  LEU45      -0.1231
     13  CA        20.1080   33.4030   45.6410 C.3    45  LEU45       0.1693
     14  C         20.6230   34.8200   45.9030 C.2    45  LEU45       0.2591
     15  O         21.4250   35.0280   46.8060 O.2    45  LEU45      -0.2718
     16  CB        20.8780   32.7720   44.4790 C.3    45  LEU45       0.0284
     17  CG        22.3650   32.5360   44.7490 C.3    45  LEU45       0.0019
     18  CD1       22.5050   31.4420   45.8010 C.3    45  LEU45       0.0001
     19  CD2       23.0930   32.1470   43.4610 C.3    45  LEU45       0.0001
     20  N         20.1560   35.7880   45.1160 N.am   46  ILE46      -0.1980
     21  CA        20.5720   37.1850   45.2780 C.3    46  ILE46       0.1595
     22  C         20.1200   37.7410   46.6380 C.2    46  ILE46       0.2287
     23  O         20.9100   38.3310   47.3760 O.2    46  ILE46      -0.2864
     24  CB        20.0100   38.0620   44.1280 C.3    46  ILE46       0.0276
     25  CG1       20.8040   37.7760   42.8490 C.3    46  ILE46       0.0022
     26  CG2       20.0810   39.5480   44.4830 C.3    46  ILE46       0.0022
     27  CD1       20.3110   38.5360   41.6070 C.3    46  ILE46       0.0001
     28  N         22.1650   41.0510   36.2460 N.3    67  VAL67      -0.1245
     29  CA        22.1680   39.6090   36.2940 C.3    67  VAL67       0.1561
     30  C         21.1450   38.9870   35.3290 C.2    67  VAL67       0.2260
     31  O         21.5020   38.0950   34.5790 O.2    67  VAL67      -0.2867
     32  CB        21.9050   39.1230   37.7650 C.3    67  VAL67       0.0252
     33  CG1       21.5400   37.6280   37.8070 C.3    67  VAL67       0.0019
     34  CG2       23.1450   39.3650   38.5930 C.3    67  VAL67       0.0019
     35  N         22.3050   36.7250   32.0150 N.3    71  HIS71      -0.1241
     36  CA        21.8730   35.3370   32.0150 C.3    71  HIS71       0.1621
     37  C         20.9440   35.0530   30.8230 C.2    71  HIS71       0.2264
     38  O         21.1640   34.1260   30.0700 O.2    71  HIS71      -0.2867
     39  CB        21.1690   35.0560   33.3300 C.3    71  HIS71       0.0745
     40  CG        20.5850   33.6940   33.4310 C.ar   71  HIS71       0.0817
     41  ND1       21.3520   32.5690   33.6340 N.ar   71  HIS71      -0.2268
     42  CD2       19.3020   33.2740   33.3750 C.ar   71  HIS71       0.1154
     43  CE1       20.5670   31.5120   33.7100 C.ar   71  HIS71       0.1986
     44  NE2       19.3170   31.9140   33.5590 N.ar   71  HIS71      -0.2212
     45  N         22.9510   35.3030   27.5270 N.3    74  SER74      -0.1202
     46  CA        23.8730   34.1940   27.4040 C.3    74  SER74       0.2020
     47  C         23.0850   32.9290   27.0220 C.2    74  SER74       0.2618
     48  O         23.5790   32.1090   26.2410 O.2    74  SER74      -0.2717
     49  CB        24.6610   34.0010   28.6980 C.3    74  SER74       0.2103
     50  OG        24.0360   32.9620   29.4300 O.3    74  SER74      -0.2182
     51  N         21.8560   32.7760   27.5090 N.am   75  LEU75      -0.1979
     52  CA        21.0900   31.5860   27.1050 C.3    75  LEU75       0.1596
     53  C         20.6440   31.6300   25.6260 C.2    75  LEU75       0.2287
     54  O         20.5900   30.5920   24.9470 O.2    75  LEU75      -0.2864
     55  CB        19.8550   31.3630   27.9970 C.3    75  LEU75       0.0297
     56  CG        20.0500   31.1040   29.5170 C.3    75  LEU75       0.0022
     57  CD1       18.7010   30.7170   30.1300 C.3    75  LEU75       0.0001
     58  CD2       21.1170   29.9790   29.7530 C.3    75  LEU75       0.0001
     59  N         23.7170   30.7390   23.8370 N.3    78  ASP78      -0.1239
     60  CA        23.9770   29.3360   24.1170 C.3    78  ASP78       0.1674
     61  C         23.1270   28.4110   23.2500 C.2    78  ASP78       0.2266
     62  O         23.6400   27.4180   22.7030 O.2    78  ASP78      -0.2867
     63  CB        23.7220   29.0460   25.5970 C.3    78  ASP78       0.1410
     64  CG        24.0340   27.5970   25.9800 C.2    78  ASP78       0.3668
     65  OD1       23.1440   26.7340   25.7610 O.co2  78  ASP78      -0.2456
     66  OD2       25.1690   27.3230   26.4940 O.co2  78  ASP78      -0.2456
     67  N         24.4470   25.6890   20.5040 N.3    82  ASP82      -0.1239
     68  CA        24.1740   24.2480   20.6570 C.3    82  ASP82       0.1674
     69  C         23.0940   23.7810   19.6860 C.2    82  ASP82       0.2266
     70  O         22.6610   22.6200   19.7390 O.2    82  ASP82      -0.2867
     71  CB        23.6860   23.8990   22.0780 C.3    82  ASP82       0.1410
     72  CG        24.6150   24.4150   23.1690 C.2    82  ASP82       0.3668
     73  OD1       25.8350   24.6090   22.8850 O.co2  82  ASP82      -0.2456
     74  OD2       24.1180   24.6350   24.3210 O.co2  82  ASP82      -0.2456
     75  N         13.8870   25.3030   24.9210 N.3    87  ARG87      -0.1245
     76  CA        14.3850   25.9250   26.1380 C.3    87  ARG87       0.1563
     77  C         13.1610   26.0190   27.0470 C.2    87  ARG87       0.2260
     78  O         12.2090   26.7780   26.7870 O.2    87  ARG87      -0.2867
     79  CB        14.9610   27.3110   25.8150 C.3    87  ARG87       0.0307
     80  CG        15.0770   28.3400   26.9610 C.3    87  ARG87       0.0489
     81  CD        16.1910   28.0380   27.9350 C.3    87  ARG87       0.2205
     82  NE        17.5040   27.9160   27.3030 N.pl3  87  ARG87      -0.0865
     83  CZ        18.5710   27.4350   27.9300 C.cat  87  ARG87       0.5346
     84  NH1       18.4680   27.0590   29.1920 N.pl3  87  ARG87       0.1354
     85  NH2       19.7240   27.2760   27.2980 N.pl3  87  ARG87       0.1354
     86  N         33.7370   33.9860   31.1860 N.3   141  LEU141     -0.1245
     87  CA        32.5750   33.2530   30.6750 C.3   141  LEU141      0.1561
     88  C         32.8200   32.8230   29.1940 C.2   141  LEU141      0.2260
     89  O         32.5760   31.6710   28.8240 O.2   141  LEU141     -0.2867
     90  CB        31.3350   34.1440   30.7680 C.3   141  LEU141      0.0270
     91  CG        30.0900   33.6380   30.0190 C.3   141  LEU141      0.0019
     92  CD1       29.6250   32.3350   30.6590 C.3   141  LEU141      0.0001
     93  CD2       28.9610   34.6900   30.0870 C.3   141  LEU141      0.0001
     94  N         33.2610   29.0980   27.7600 N.3   145  GLN145     -0.1245
     95  CA        32.3340   28.7030   26.7010 C.3   145  GLN145      0.1566
     96  C         33.1380   28.3980   25.4280 C.2   145  GLN145      0.2260
     97  O         32.8180   27.4720   24.6940 O.2   145  GLN145     -0.2867
     98  CB        31.3180   29.8160   26.3860 C.3   145  GLN145      0.0367
     99  CG        30.3510   29.4750   25.2670 C.3   145  GLN145      0.0905
    100  CD        29.2780   28.4230   25.6450 C.2   145  GLN145      0.2608
    101  OE1       28.4240   28.0220   24.8060 O.2   145  GLN145     -0.2717
    102  NE2       29.3120   27.9700   26.8990 N.am  145  GLN145     -0.0878
    103  N         34.6520   24.9100   25.8490 N.3   148  ASP148     -0.1239
    104  CA        33.6320   23.8770   25.8280 C.3   148  ASP148      0.1674
    105  C         33.2230   23.5990   24.3470 C.2   148  ASP148      0.2266
    106  O         33.1820   22.4430   23.8980 O.2   148  ASP148     -0.2867
    107  CB        32.4370   24.2870   26.7150 C.3   148  ASP148      0.1410
    108  CG        31.5680   23.0620   27.1950 C.2   148  ASP148      0.3668
    109  OD1       32.0470   21.9190   27.3820 O.co2 148  ASP148     -0.2456
    110  OD2       30.3830   23.2540   27.4150 O.co2 148  ASP148     -0.2456
    111  N         33.5760   28.9800   32.5570 N.3   172  LYS172     -0.1231
    112  CA        32.2160   29.0320   32.0210 C.3   172  LYS172      0.1693
    113  C         31.1060   29.2750   33.0380 C.2   172  LYS172      0.2592
    114  O         30.5190   30.3730   33.0740 O.2   172  LYS172     -0.2718
    115  CB        31.8830   27.7560   31.1890 C.3   172  LYS172      0.0285
    116  CG        30.5010   27.7500   30.4590 C.3   172  LYS172      0.0035
    117  CD        30.2360   26.4450   29.6690 C.3   172  LYS172      0.0206
    118  CE        29.4030   25.4130   30.4690 C.3   172  LYS172      0.1093
    119  NZ        29.4200   23.9410   30.0090 N.3   172  LYS172     -0.1314
    120  N         30.8260   28.2810   33.8750 N.am  173  THR173     -0.1953
    121  CA        29.7390   28.3920   34.8230 C.3   173  THR173      0.1897
    122  C         30.0430   29.3320   36.0170 C.2   173  THR173      0.2313
    123  O         29.1410   29.9790   36.5390 O.2   173  THR173     -0.2863
    124  CB        29.3480   26.9810   35.2890 C.3   173  THR173      0.1794
    125  OG1       29.1290   26.1530   34.1280 O.3   173  THR173     -0.2208
    126  CG2       28.0880   27.0080   36.1440 C.3   173  THR173      0.0378
    127  N         29.4420   33.9860   35.7090 N.3   176  LEU176     -0.1231
    128  CA        28.2920   34.7600   36.1510 C.3   176  LEU176      0.1693
    129  C         27.9780   34.6240   37.6460 C.2   176  LEU176      0.2592
    130  O         27.4020   35.5460   38.2380 O.2   176  LEU176     -0.2718
    131  CB        27.0390   34.4360   35.3060 C.3   176  LEU176      0.0284
    132  CG        26.9670   34.9200   33.8350 C.3   176  LEU176      0.0019
    133  CD1       25.5820   34.5650   33.2380 C.3   176  LEU176      0.0001
    134  CD2       27.2260   36.4630   33.7290 C.3   176  LEU176      0.0001
    135  N         28.3370   33.4940   38.2610 N.am  177  PHE177     -0.1976
    136  CA        28.1090   33.3660   39.7130 C.3   177  PHE177      0.1639
    137  C         29.0480   34.3680   40.3920 C.2   177  PHE177      0.2290
    138  O         28.6230   35.1550   41.2350 O.2   177  PHE177     -0.2864
    139  CB        28.4070   31.9460   40.2180 C.3   177  PHE177      0.0560
    140  CG        27.2870   30.9760   40.0010 C.ar  177  PHE177     -0.0200
    141  CD1       26.3220   30.7780   40.9810 C.ar  177  PHE177     -0.0042
    142  CD2       27.2090   30.2340   38.8260 C.ar  177  PHE177     -0.0042
    143  CE1       25.2940   29.8330   40.7850 C.ar  177  PHE177     -0.0003
    144  CE2       26.1880   29.2920   38.6150 C.ar  177  PHE177     -0.0003
    145  CZ        25.2350   29.0900   39.5960 C.ar  177  PHE177     -0.0000
    146  N         28.1330   38.1830   39.8060 N.3   180  THR180     -0.1218
    147  CA        27.0600   38.5690   40.7170 C.3   180  THR180      0.1862
    148  C         27.5840   38.8180   42.1330 C.2   180  THR180      0.2287
    149  O         27.3340   39.8610   42.7680 O.2   180  THR180     -0.2866
    150  CB        25.9950   37.4440   40.8200 C.3   180  THR180      0.1770
    151  OG1       25.4500   37.1680   39.5280 O.3   180  THR180     -0.2211
    152  CG2       24.8570   37.8720   41.7390 C.3   180  THR180      0.0375
    153  N         26.5520   23.0250   40.2360 N.3   204  TYR204     -0.1227
    154  CA        25.4580   23.2930   39.3170 C.3   204  TYR204      0.1736
    155  C         25.7640   22.7050   37.9030 C.2   204  TYR204      0.2595
    156  O         24.9120   22.0450   37.3000 O.2   204  TYR204     -0.2718
    157  CB        25.1750   24.8190   39.2550 C.3   204  TYR204      0.0548
    158  CG        24.1730   25.1620   38.1960 C.ar  204  TYR204     -0.0200
    159  CD1       22.8150   25.1320   38.4530 C.ar  204  TYR204     -0.0009
    160  CD2       24.5870   25.3190   36.8590 C.ar  204  TYR204     -0.0009
    161  CE1       21.8820   25.2260   37.3950 C.ar  204  TYR204      0.0417
    162  CE2       23.6800   25.4090   35.8080 C.ar  204  TYR204      0.0417
    163  CZ        22.3370   25.3540   36.0770 C.ar  204  TYR204      0.1957
    164  OH        21.4650   25.3770   35.0090 O.3   204  TYR204     -0.2866
    165  N         26.9740   22.9060   37.3860 N.am  205  GLN205     -0.1979
    166  CA        27.2430   22.3750   36.0510 C.3   205  GLN205      0.1601
    167  C         27.3220   20.8150   35.9980 C.2   205  GLN205      0.2287
    168  O         26.8280   20.1700   35.0700 O.2   205  GLN205     -0.2864
    169  CB        28.5340   22.9570   35.4820 C.3   205  GLN205      0.0394
    170  CG        28.6650   22.5930   33.9770 C.3   205  GLN205      0.0908
    171  CD        27.5010   23.2120   33.1840 C.2   205  GLN205      0.2608
    172  OE1       27.3050   24.4290   33.2310 O.2   205  GLN205     -0.2717
    173  NE2       26.7160   22.3860   32.5000 N.am  205  GLN205     -0.0878
    174  N         23.9370   19.5410   36.2790 N.3   208  ASP208     -0.1239
    175  CA        23.2060   19.7880   35.0420 C.3   208  ASP208      0.1674
    176  C         23.5680   18.6550   34.0400 C.2   208  ASP208      0.2266
    177  O         22.6810   18.0270   33.4600 O.2   208  ASP208     -0.2867
    178  CB        23.5860   21.1700   34.4860 C.3   208  ASP208      0.1410
    179  CG        22.7440   21.5680   33.3040 C.2   208  ASP208      0.3668
    180  OD1       21.5150   21.7330   33.4830 O.co2 208  ASP208     -0.2456
    181  OD2       23.3160   21.7050   32.1940 O.co2 208  ASP208     -0.2456
    182  N         22.2480   16.7180   25.4160 N.3   225  ASP225     -0.1239
    183  CA        23.6960   16.7830   25.4950 C.3   225  ASP225      0.1674
    184  C         24.3730   15.7430   24.5900 C.2   225  ASP225      0.2266
    185  O         25.4860   15.9820   24.0800 O.2   225  ASP225     -0.2867
    186  CB        24.1830   16.5890   26.9260 C.3   225  ASP225      0.1410
    187  CG        23.9550   17.8150   27.7900 C.2   225  ASP225      0.3668
    188  OD1       23.4150   18.8330   27.2900 O.co2 225  ASP225     -0.2456
    189  OD2       24.3410   17.7710   28.9820 O.co2 225  ASP225     -0.2456
    190  N         23.9750   16.8680   20.9750 N.3   228  GLU228     -0.1245
    191  CA        24.8910   17.9860   20.8230 C.3   228  GLU228      0.1567
    192  C         26.3810   17.5470   20.7940 C.2   228  GLU228      0.2260
    193  O         27.2660   18.3140   20.3440 O.2   228  GLU228     -0.2867
    194  CB        24.6160   18.9530   21.9750 C.3   228  GLU228      0.0388
    195  CG        25.1740   20.3050   21.8150 C.3   228  GLU228      0.1160
    196  CD        25.3700   20.9860   23.1780 C.2   228  GLU228      0.3649
    197  OE1       24.3690   20.9250   23.9700 O.co2 228  GLU228     -0.2457
    198  OE2       26.5040   21.5570   23.4280 O.co2 228  GLU228     -0.2457
    199  N         28.2800   16.9670   23.3530 N.3   230  LYS230     -0.1245
    200  CA        28.9260   17.6300   24.4870 C.3   230  LYS230      0.1561
    201  C         29.9380   16.8170   25.3610 C.2   230  LYS230      0.2260
    202  O         29.6790   15.6570   25.7160 O.2   230  LYS230     -0.2867
    203  CB        27.8180   18.1450   25.3870 C.3   230  LYS230      0.0271
    204  CG        28.2660   19.1730   26.3470 C.3   230  LYS230      0.0035
    205  CD        27.0680   19.7460   27.1260 C.3   230  LYS230      0.0206
    206  CE        27.5770   20.7560   28.1810 C.3   230  LYS230      0.1093
    207  NZ        26.5030   21.2010   29.0590 N.3   230  LYS230     -0.1314
@<TRIPOS>BOND
     1    69    70    2
     2    69    68    1
     3   193   192    2
     4    67    68    1
     5    68    71    1
     6   192   191    1
     7   191   190    1
     8   191   194    1
     9   195   194    1
    10   195   196    1
    11    71    72    1
    12    62    61    2
    13    73    72   ar
    14    72    74   ar
    15   196   198   ar
    16   196   197   ar
    17    61    60    1
    18   199   200    1
    19    59    60    1
    20   106   105    2
    21   185   184    2
    22    60    63    1
    23   105   104    1
    24   200   201    1
    25   200   203    1
    26   184   183    1
    27    97    96    2
    28   101   100    2
    29    75    76    1
    30    54    53    2
    31    99   100    1
    32    99    98    1
    33   201   202    2
    34   203   204    1
    35   182   183    1
    36    96    95    1
    37   183   186    1
    38    63    64    1
    39    53    52    1
    40   100   102   am
    41    65    64   ar
    42    79    76    1
    43    79    80    1
    44   104   103    1
    45   104   107    1
    46    64    66   ar
    47    76    77    1
    48    48    47    2
    49   204   205    1
    50    98    95    1
    51    95    94    1
    52   107   108    1
    53    78    77    2
    54   186   187    1
    55    80    81    1
    56    47    46    1
    57    47    51   am
    58    52    51    1
    59    52    55    1
    60   205   206    1
    61   108   109   ar
    62   108   110   ar
    63   188   187   ar
    64    85    83    1
    65    82    83    2
    66    82    81    1
    67    46    45    1
    68    46    49    1
    69   187   189   ar
    70    83    84    1
    71    55    56    1
    72   206   207    1
    73    49    50    1
    74    89    88    2
    75    88    87    1
    76    56    58    1
    77    56    57    1
    78   117   116    1
    79   117   118    1
    80   119   118    1
    81    91    93    1
    82    91    92    1
    83    91    90    1
    84    38    37    2
    85   116   115    1
    86    87    90    1
    87    87    86    1
    88    37    36    1
    89   115   112    1
    90    36    35    1
    91    36    39    1
    92   112   111    1
    93   112   113    1
    94   181   179   ar
    95   173   171   am
    96   113   114    2
    97   113   120   am
    98   171   172    2
    99   171   170    1
   100   133   132    1
   101   179   180   ar
   102   179   178    1
   103    39    40    1
   104    42    40   ar
   105    42    44   ar
   106    40    41   ar
   107   177   176    2
   108    44    43   ar
   109    41    43   ar
   110   134   132    1
   111   132   131    1
   112   120   121    1
   113   170   169    1
   114   176   175    1
   115   125   124    1
   116   178   175    1
   117    31    30    2
   118   121   124    1
   119   121   122    1
   120   164   163    1
   121   175   174    1
   122   168   167    2
   123   124   126    1
   124   131   128    1
   125    30    29    1
   126   169   166    1
   127    11     9    1
   128   127   128    1
   129   162   163   ar
   130   162   160   ar
   131   167   166    1
   132   122   123    2
   133   166   165    1
   134   163   161   ar
   135   128   129    1
   136     9     8    2
   137     9    10    1
   138    28    29    1
   139    29    32    1
   140     8     7    1
   141   160   158   ar
   142     7     6    1
   143   156   155    2
   144   165   155   am
   145   161   159   ar
   146   129   130    2
   147   129   135   am
   148    32    33    1
   149    32    34    1
   150   155   154    1
   151   158   159   ar
   152   158   157    1
   153   135   136    1
   154   144   142   ar
   155   144   145   ar
   156     6     5    1
   157   142   140   ar
   158     5     2    1
   159   157   154    1
   160   154   153    1
   161   151   150    1
   162   145   143   ar
   163   136   139    1
   164   136   137    1
   165   146   147    1
   166   140   139    1
   167   140   141   ar
   168   137   138    2
   169     2     1    1
   170     2     3    1
   171   147   150    1
   172   147   148    1
   173   143   141   ar
   174   150   152    1
   175     3     4    2
   176    27    25    1
   177   148   149    2
   178    25    24    1
   179    19    17    1
   180    24    26    1
   181    24    21    1
   182    16    17    1
   183    16    13    1
   184    17    18    1
   185    20    21    1
   186    20    14   am
   187    21    22    1
   188    12    13    1
   189    13    14    1
   190    14    15    2
   191    22    23    2
