@<TRIPOS>MOLECULE
tmp/2e95A00.pdb
 132 120 0 0 0
SMALL
GASTEIGER

@<TRIPOS>ATOM
      1  N         32.5140   42.4980   12.1490 N.3    74  LEU74      -0.1245
      2  CA        32.4160   41.8920   10.8230 C.3    74  LEU74       0.1561
      3  C         32.2130   40.3830   10.9290 C.2    74  LEU74       0.2260
      4  O         31.4990   39.7750   10.1170 O.2    74  LEU74      -0.2867
      5  CB        33.6710   42.2020    9.9880 C.3    74  LEU74       0.0270
      6  CG        33.9210   43.6920    9.6880 C.3    74  LEU74       0.0019
      7  CD1       35.0510   43.8110    8.5950 C.3    74  LEU74       0.0001
      8  CD2       32.6020   44.3080    9.1590 C.3    74  LEU74       0.0001
      9  N         28.5980   40.1240   11.7220 N.3    77  ASP77      -0.1225
     10  CA        27.8420   40.5330   10.5700 C.3    77  ASP77       0.1805
     11  C         27.7390   39.4500    9.4670 C.2    77  ASP77       0.2597
     12  O         26.6510   39.2090    8.8830 O.2    77  ASP77      -0.2718
     13  CB        28.4270   41.8310    9.9950 C.3    77  ASP77       0.1424
     14  CG        27.5940   42.3720    8.8810 C.2    77  ASP77       0.3668
     15  OD1       26.4900   42.8890    9.1560 O.co2  77  ASP77      -0.2456
     16  OD2       28.0220   42.2440    7.7140 O.co2  77  ASP77      -0.2456
     17  N         28.8670   38.7980    9.1870 N.am   78  ASP78      -0.1974
     18  CA        28.8850   37.7550    8.1810 C.3    78  ASP78       0.1709
     19  C         28.0200   36.5400    8.5530 C.2    78  ASP78       0.2293
     20  O         27.5340   35.8350    7.6680 O.2    78  ASP78      -0.2864
     21  CB        30.3380   37.3240    7.8990 C.3    78  ASP78       0.1436
     22  CG        31.1170   38.4050    7.1710 C.2    78  ASP78       0.3671
     23  OD1       30.4620   39.1720    6.4240 O.co2  78  ASP78      -0.2456
     24  OD2       32.3620   38.5030    7.3480 O.co2  78  ASP78      -0.2456
     25  N         24.4480   37.9660    8.0720 N.3    81  ASP81      -0.1239
     26  CA        24.1840   38.1320    6.6570 C.3    81  ASP81       0.1674
     27  C         24.3980   36.8460    5.8390 C.2    81  ASP81       0.2266
     28  O         24.1350   36.8250    4.6460 O.2    81  ASP81      -0.2867
     29  CB        25.0410   39.3020    6.1170 C.3    81  ASP81       0.1410
     30  CG        24.6800   40.6220    6.8200 C.2    81  ASP81       0.3668
     31  OD1       23.7660   40.5810    7.6680 O.co2  81  ASP81      -0.2456
     32  OD2       25.2820   41.6870    6.5550 O.co2  81  ASP81      -0.2456
     33  N         34.5310   37.3700    2.4790 N.3    86  ARG86      -0.1245
     34  CA        34.7940   38.6950    3.0700 C.3    86  ARG86       0.1563
     35  C         36.2450   39.0400    2.6510 C.2    86  ARG86       0.2260
     36  O         37.1890   38.3690    3.0710 O.2    86  ARG86      -0.2867
     37  CB        34.6610   38.6430    4.6140 C.3    86  ARG86       0.0307
     38  CG        35.4350   39.7230    5.4300 C.3    86  ARG86       0.0489
     39  CD        34.7320   41.1050    5.5080 C.3    86  ARG86       0.2205
     40  NE        33.3750   41.0210    6.0630 N.pl3  86  ARG86      -0.0865
     41  CZ        32.4730   42.0080    5.9850 C.cat  86  ARG86       0.5346
     42  NH1       32.7980   43.1480    5.3900 N.pl3  86  ARG86       0.1354
     43  NH2       31.2280   41.8530    6.4720 N.pl3  86  ARG86       0.1354
     44  N         21.9510   47.7930   13.6820 N.3   144  GLN144     -0.1245
     45  CA        22.0490   46.4640   13.1190 C.3   144  GLN144      0.1566
     46  C         20.7000   45.7030   13.3000 C.2   144  GLN144      0.2260
     47  O         20.2240   45.0640   12.3460 O.2   144  GLN144     -0.2867
     48  CB        23.2020   45.6850   13.7740 C.3   144  GLN144      0.0367
     49  CG        23.4060   44.3590   13.1580 C.3   144  GLN144      0.0905
     50  CD        24.3850   44.4070   11.9790 C.2   144  GLN144      0.2608
     51  OE1       24.4410   45.3910   11.2520 O.2   144  GLN144     -0.2717
     52  NE2       25.1430   43.3260   11.7890 N.am  144  GLN144     -0.0878
     53  N         18.2090   46.8530   10.7150 N.3   147  ASP147     -0.1239
     54  CA        18.5920   46.4070    9.3750 C.3   147  ASP147      0.1674
     55  C         18.2190   44.9130    9.1900 C.2   147  ASP147      0.2266
     56  O         17.6200   44.5160    8.1850 O.2   147  ASP147     -0.2867
     57  CB        20.0910   46.6380    9.1520 C.3   147  ASP147      0.1410
     58  CG        20.4490   46.8150    7.6630 C.2   147  ASP147      0.3668
     59  OD1       19.5860   47.3020    6.8610 O.co2 147  ASP147     -0.2456
     60  OD2       21.6060   46.4900    7.3110 O.co2 147  ASP147     -0.2456
     61  N         23.6750   52.4310   13.1700 N.3   171  LYS171     -0.1245
     62  CA        24.5580   51.3530   12.7360 C.3   171  LYS171      0.1561
     63  C         25.9550   51.7840   12.3620 C.2   171  LYS171      0.2260
     64  O         26.9140   51.4580   13.0380 O.2   171  LYS171     -0.2867
     65  CB        23.9680   50.5870   11.5400 C.3   171  LYS171      0.0271
     66  CG        24.7660   49.3090   11.1640 C.3   171  LYS171      0.0035
     67  CD        24.1650   48.5910    9.9290 C.3   171  LYS171      0.0206
     68  CE        24.4380   49.3560    8.6130 C.3   171  LYS171      0.1093
     69  NZ        23.8440   48.6810    7.3360 N.3   171  LYS171     -0.1314
     70  N         29.7070   56.7180    3.5290 N.3   204  TYR204     -0.1227
     71  CA        30.2990   55.3840    3.5120 C.3   204  TYR204      0.1736
     72  C         29.2260   54.2720    3.3020 C.2   204  TYR204      0.2595
     73  O         29.4170   53.3710    2.4880 O.2   204  TYR204     -0.2718
     74  CB        31.0280   55.0690    4.8230 C.3   204  TYR204      0.0548
     75  CG        31.4320   53.6090    4.9140 C.ar  204  TYR204     -0.0200
     76  CD1       32.6440   53.1570    4.3770 C.ar  204  TYR204     -0.0009
     77  CD2       30.5540   52.6410    5.4490 C.ar  204  TYR204     -0.0009
     78  CE1       32.9860   51.7500    4.3570 C.ar  204  TYR204      0.0417
     79  CE2       30.8800   51.2460    5.4320 C.ar  204  TYR204      0.0417
     80  CZ        32.1090   50.8140    4.8780 C.ar  204  TYR204      0.1957
     81  OH        32.4460   49.4320    4.8710 O.3   204  TYR204     -0.2866
     82  N         28.1440   54.2830    4.0860 N.am  205  GLN205     -0.1979
     83  CA        27.1330   53.2460    3.9170 C.3   205  GLN205      0.1601
     84  C         26.4050   53.2420    2.5590 C.2   205  GLN205      0.2287
     85  O         26.1670   52.1840    1.9500 O.2   205  GLN205     -0.2864
     86  CB        26.0610   53.3290    5.0240 C.3   205  GLN205      0.0394
     87  CG        25.1410   52.1010    5.0340 C.3   205  GLN205      0.0908
     88  CD        25.9230   50.7990    5.1980 C.2   205  GLN205      0.2608
     89  OE1       26.6230   50.6250    6.2030 O.2   205  GLN205     -0.2717
     90  NE2       25.8220   49.8810    4.2130 N.am  205  GLN205     -0.0878
     91  N         28.6130   52.0500   -0.1410 N.3   208  ASP208     -0.1239
     92  CA        28.7800   50.5880   -0.0480 C.3   208  ASP208      0.1674
     93  C         27.5310   49.9060   -0.7100 C.2   208  ASP208      0.2266
     94  O         27.6720   48.9600   -1.4810 O.2   208  ASP208     -0.2867
     95  CB        28.9380   50.1670    1.4540 C.3   208  ASP208      0.1410
     96  CG        28.5910   48.6380    1.7590 C.2   208  ASP208      0.3668
     97  OD1       28.2110   48.3370    2.9310 O.co2 208  ASP208     -0.2456
     98  OD2       28.6730   47.7270    0.8790 O.co2 208  ASP208     -0.2456
     99  N         27.9810   47.8890   -4.4740 N.3   212  ASN212     -0.1240
    100  CA        27.6530   46.4730   -4.4090 C.3   212  ASN212      0.1653
    101  C         26.8170   46.1040   -5.6400 C.2   212  ASN212      0.2266
    102  O         26.9270   45.0140   -6.1330 O.2   212  ASN212     -0.2867
    103  CB        26.8890   46.1660   -3.1320 C.3   212  ASN212      0.1155
    104  CG        26.8550   44.7080   -2.8300 C.2   212  ASN212      0.2627
    105  OD1       25.9550   43.9830   -3.2580 O.2   212  ASN212     -0.2716
    106  ND2       27.8660   44.2390   -2.0950 N.am  212  ASN212     -0.0877
    107  N         24.4600   41.7850   -1.9310 N.3   224  ASP224     -0.1239
    108  CA        23.3730   42.3820   -1.1450 C.3   224  ASP224      0.1674
    109  C         22.0050   41.8720   -1.6100 C.2   224  ASP224      0.2266
    110  O         21.0740   41.8560   -0.8070 O.2   224  ASP224     -0.2867
    111  CB        23.3620   43.9240   -1.2350 C.3   224  ASP224      0.1410
    112  CG        24.4410   44.5880   -0.3140 C.2   224  ASP224      0.3668
    113  OD1       25.1820   43.8540    0.4230 O.co2 224  ASP224     -0.2456
    114  OD2       24.5480   45.8460   -0.3360 O.co2 224  ASP224     -0.2456
    115  N         21.4290   38.5050   -0.1210 N.3   227  GLU227     -0.1245
    116  CA        21.1700   38.6560    1.2940 C.3   227  GLU227      0.1567
    117  C         19.7660   39.2030    1.5590 C.2   227  GLU227      0.2260
    118  O         19.2020   38.9050    2.5930 O.2   227  GLU227     -0.2867
    119  CB        22.2750   39.5250    1.9180 C.3   227  GLU227      0.0388
    120  CG        23.6270   38.8580    1.5700 C.3   227  GLU227      0.1160
    121  CD        24.9090   39.4390    2.2160 C.2   227  GLU227      0.3649
    122  OE1       25.8430   38.5910    2.4030 O.co2 227  GLU227     -0.2457
    123  OE2       24.9690   40.6900    2.5010 O.co2 227  GLU227     -0.2457
    124  N         18.9080   42.4370    1.7150 N.3   229  LYS229     -0.1245
    125  CA        19.1570   43.7100    2.3910 C.3   229  LYS229      0.1561
    126  C         18.3180   44.8560    1.8500 C.2   229  LYS229      0.2260
    127  O         18.1800   45.0030    0.6310 O.2   229  LYS229     -0.2867
    128  CB        20.6530   44.0600    2.2140 C.3   229  LYS229      0.0271
    129  CG        21.0210   45.4640    2.5770 C.3   229  LYS229      0.0035
    130  CD        22.4550   45.7900    2.2190 C.3   229  LYS229      0.0206
    131  CE        23.3340   45.4380    3.3830 C.3   229  LYS229      0.1093
    132  NZ        23.2120   46.5400    4.3780 N.3   229  LYS229     -0.1314
@<TRIPOS>BOND
     1   102   101    2
     2   101   100    1
     3    99   100    1
     4   100   103    1
     5   105   104    2
     6   103   104    1
     7   104   106   am
     8   107   108    1
     9   109   108    1
    10   109   110    2
    11    94    93    2
    12   111   108    1
    13   111   112    1
    14    93    92    1
    15   114   112   ar
    16   112   113   ar
    17    91    92    1
    18   115   116    1
    19    92    95    1
    20   127   126    2
    21    98    96   ar
    22   116   117    1
    23   116   119    1
    24    95    96    1
    25   117   118    2
    26   120   119    1
    27   120   121    1
    28   124   125    1
    29    96    97   ar
    30   126   125    1
    31    85    84    2
    32   128   125    1
    33   128   129    1
    34   121   122   ar
    35   121   123   ar
    36   130   129    1
    37   130   131    1
    38    33    34    1
    39    73    72    2
    40    84    83    1
    41    35    34    1
    42    35    36    2
    43    34    37    1
    44    72    71    1
    45    72    82   am
    46   131   132    1
    47    71    70    1
    48    71    74    1
    49    83    82    1
    50    83    86    1
    51    90    88   am
    52    78    76   ar
    53    78    80   ar
    54    76    75   ar
    55    37    38    1
    56    28    27    2
    57    74    75    1
    58    81    80    1
    59    80    79   ar
    60    75    77   ar
    61    86    87    1
    62    87    88    1
    63    88    89    2
    64    42    41    1
    65    38    39    1
    66    79    77   ar
    67    39    40    1
    68    27    26    1
    69    41    40    2
    70    41    43    1
    71    29    26    1
    72    29    30    1
    73    23    22   ar
    74    32    30   ar
    75    26    25    1
    76    30    31   ar
    77    59    58   ar
    78    22    24   ar
    79    22    21    1
    80    60    58   ar
    81    69    68    1
    82    58    57    1
    83    20    19    2
    84    16    14   ar
    85    21    18    1
    86    18    19    1
    87    18    17    1
    88    56    55    2
    89     7     6    1
    90    68    67    1
    91    14    15   ar
    92    14    13    1
    93    12    11    2
    94    57    54    1
    95     8     6    1
    96    17    11   am
    97    55    54    1
    98    54    53    1
    99    11    10    1
   100     6     5    1
   101    67    66    1
   102     5     2    1
   103    13    10    1
   104     4     3    2
   105    10     9    1
   106     2     3    1
   107     2     1    1
   108    66    65    1
   109    51    50    2
   110    65    62    1
   111    52    50   am
   112    50    49    1
   113    47    46    2
   114    63    62    1
   115    63    64    2
   116    62    61    1
   117    45    46    1
   118    45    44    1
   119    45    48    1
   120    49    48    1
