@<TRIPOS>MOLECULE
tmp/2e95B00.pdb
 239 220 0 0 0
SMALL
GASTEIGER

@<TRIPOS>ATOM
      1  N         16.4920   32.6130   41.1490 N.3    41  ARG41      -0.1245
      2  CA        17.6610   33.4290   40.8710 C.3    41  ARG41       0.1563
      3  C         17.6350   34.5560   41.9040 C.2    41  ARG41       0.2260
      4  O         18.6120   34.8070   42.5900 O.2    41  ARG41      -0.2867
      5  CB        17.5440   34.0020   39.4550 C.3    41  ARG41       0.0307
      6  CG        18.8160   33.9900   38.6320 C.3    41  ARG41       0.0489
      7  CD        18.5720   33.2670   37.3040 C.3    41  ARG41       0.2205
      8  NE        17.5170   33.8790   36.4920 N.pl3  41  ARG41      -0.0865
      9  CZ        16.6050   33.1930   35.7990 C.cat  41  ARG41       0.5346
     10  NH1       16.6070   31.8640   35.8190 N.pl3  41  ARG41       0.1354
     11  NH2       15.6980   33.8340   35.0680 N.pl3  41  ARG41       0.1354
     12  N         18.4320   33.5250   45.5200 N.3    44  LEU44      -0.1231
     13  CA        19.8420   33.3200   45.8650 C.3    44  LEU44       0.1693
     14  C         20.4750   34.6820   46.1960 C.2    44  LEU44       0.2591
     15  O         21.2510   34.8180   47.1450 O.2    44  LEU44      -0.2718
     16  CB        20.5820   32.6490   44.7000 C.3    44  LEU44       0.0284
     17  CG        22.0710   32.3070   44.8720 C.3    44  LEU44       0.0019
     18  CD1       22.3010   31.2660   45.9550 C.3    44  LEU44       0.0001
     19  CD2       22.5970   31.8070   43.5600 C.3    44  LEU44       0.0001
     20  N         20.1340   35.6840   45.3950 N.am   45  ILE45      -0.1980
     21  CA        20.6060   37.0620   45.5910 C.3    45  ILE45       0.1595
     22  C         20.1180   37.5690   46.9760 C.2    45  ILE45       0.2287
     23  O         20.9300   38.0140   47.8000 O.2    45  ILE45      -0.2864
     24  CB        20.0890   37.9720   44.4320 C.3    45  ILE45       0.0276
     25  CG1       20.8340   37.5970   43.1430 C.3    45  ILE45       0.0022
     26  CG2       20.3120   39.4320   44.7410 C.3    45  ILE45       0.0022
     27  CD1       20.4210   38.3640   41.8920 C.3    45  ILE45       0.0001
     28  N         21.8830   35.8660   49.8430 N.3    48  ILE48      -0.1245
     29  CA        23.2730   36.3260   50.0020 C.3    48  ILE48       0.1561
     30  C         23.3460   37.7500   50.5580 C.2    48  ILE48       0.2260
     31  O         24.3100   38.0970   51.2290 O.2    48  ILE48      -0.2867
     32  CB        24.0720   36.2590   48.6430 C.3    48  ILE48       0.0252
     33  CG1       24.4130   34.7990   48.3240 C.3    48  ILE48       0.0019
     34  CG2       25.3960   37.0130   48.7440 C.3    48  ILE48       0.0019
     35  CD1       24.6930   34.5450   46.8710 C.3    48  ILE48       0.0001
     36  N         22.0310   40.8480   36.4900 N.3    66  VAL66      -0.1245
     37  CA        22.0890   39.3830   36.5070 C.3    66  VAL66       0.1561
     38  C         21.0440   38.8160   35.5260 C.2    66  VAL66       0.2260
     39  O         21.3880   38.0250   34.6520 O.2    66  VAL66      -0.2867
     40  CB        21.7810   38.8560   37.9690 C.3    66  VAL66       0.0252
     41  CG1       21.4880   37.3580   37.9810 C.3    66  VAL66       0.0019
     42  CG2       22.9250   39.1650   38.8780 C.3    66  VAL66       0.0019
     43  N         22.2180   36.6240   32.2310 N.3    70  HIS70      -0.1241
     44  CA        21.8200   35.2400   32.1570 C.3    70  HIS70       0.1621
     45  C         20.8780   34.9620   30.9810 C.2    70  HIS70       0.2264
     46  O         21.0360   33.9560   30.2910 O.2    70  HIS70      -0.2867
     47  CB        21.2170   34.8350   33.5070 C.3    70  HIS70       0.0745
     48  CG        20.3030   33.6580   33.4540 C.ar   70  HIS70       0.0817
     49  ND1       20.7180   32.3820   33.7540 N.ar   70  HIS70      -0.2268
     50  CD2       18.9730   33.5780   33.1950 C.ar   70  HIS70       0.1154
     51  CE1       19.6810   31.5640   33.6890 C.ar   70  HIS70       0.1986
     52  NE2       18.6110   32.2670   33.3490 N.ar   70  HIS70      -0.2212
     53  N         22.9310   35.2730   27.7110 N.3    73  SER73      -0.1202
     54  CA        23.9000   34.2150   27.4880 C.3    73  SER73       0.2020
     55  C         23.2000   32.9200   27.1100 C.2    73  SER73       0.2618
     56  O         23.7610   32.1450   26.3190 O.2    73  SER73      -0.2717
     57  CB        24.8900   34.0940   28.6810 C.3    73  SER73       0.2103
     58  OG        24.2610   33.4460   29.7290 O.3    73  SER73      -0.2182
     59  N         21.9740   32.6800   27.6050 N.am   74  LEU74      -0.1979
     60  CA        21.2280   31.4770   27.1600 C.3    74  LEU74       0.1596
     61  C         20.6760   31.6650   25.7280 C.2    74  LEU74       0.2287
     62  O         20.5590   30.7040   25.0000 O.2    74  LEU74      -0.2864
     63  CB        20.0540   31.1010   28.0890 C.3    74  LEU74       0.0297
     64  CG        20.2710   30.8910   29.6030 C.3    74  LEU74       0.0022
     65  CD1       18.9230   30.4940   30.2840 C.3    74  LEU74       0.0001
     66  CD2       21.3210   29.7780   29.8200 C.3    74  LEU74       0.0001
     67  N         23.7510   30.7380   23.8710 N.3    77  ASP77      -0.1225
     68  CA        24.1180   29.3540   24.1010 C.3    77  ASP77       0.1805
     69  C         23.2390   28.4080   23.2660 C.2    77  ASP77       0.2597
     70  O         23.7500   27.4330   22.6760 O.2    77  ASP77      -0.2718
     71  CB        24.0110   29.0340   25.6050 C.3    77  ASP77       0.1424
     72  CG        24.4760   27.6340   25.9410 C.2    77  ASP77       0.3668
     73  OD1       23.5960   26.7530   26.1790 O.co2  77  ASP77      -0.2456
     74  OD2       25.7260   27.4150   25.9660 O.co2  77  ASP77      -0.2456
     75  N         21.9380   28.6840   23.1890 N.am   78  ASP78      -0.1974
     76  CA        21.0500   27.8180   22.3940 C.3    78  ASP78       0.1709
     77  C         21.3870   27.8660   20.9030 C.2    78  ASP78       0.2293
     78  O         21.2520   26.8660   20.2300 O.2    78  ASP78      -0.2864
     79  CB        19.5680   28.1240   22.6880 C.3    78  ASP78       0.1436
     80  CG        19.1720   27.7600   24.1290 C.2    78  ASP78       0.3671
     81  OD1       19.6880   26.7410   24.6970 O.co2  78  ASP78      -0.2456
     82  OD2       18.3520   28.4980   24.6950 O.co2  78  ASP78      -0.2456
     83  N         24.5150   25.7090   20.6780 N.3    81  ASP81      -0.1239
     84  CA        24.2560   24.3040   20.9010 C.3    81  ASP81       0.1674
     85  C         23.1590   23.7920   20.0000 C.2    81  ASP81       0.2266
     86  O         22.7070   22.6790   20.2110 O.2    81  ASP81      -0.2867
     87  CB        23.8570   24.0390   22.3660 C.3    81  ASP81       0.1410
     88  CG        24.9120   24.5380   23.3580 C.2    81  ASP81       0.3668
     89  OD1       26.0820   24.7600   22.9600 O.co2  81  ASP81      -0.2456
     90  OD2       24.5850   24.7310   24.5460 O.co2  81  ASP81      -0.2456
     91  N         14.0360   25.1940   25.2900 N.3    86  ARG86      -0.1245
     92  CA        14.5760   25.7650   26.5150 C.3    86  ARG86       0.1563
     93  C         13.3460   25.8660   27.4520 C.2    86  ARG86       0.2260
     94  O         12.3370   26.5050   27.1320 O.2    86  ARG86      -0.2867
     95  CB        15.2130   27.1300   26.1770 C.3    86  ARG86       0.0307
     96  CG        15.4060   28.1180   27.3100 C.3    86  ARG86       0.0489
     97  CD        16.5710   27.7710   28.2070 C.3    86  ARG86       0.2205
     98  NE        17.8270   27.6430   27.4680 N.pl3  86  ARG86      -0.0865
     99  CZ        18.9510   27.1870   28.0200 C.cat  86  ARG86       0.5346
    100  NH1       18.9650   26.8470   29.3130 N.pl3  86  ARG86       0.1354
    101  NH2       20.0340   26.9970   27.2820 N.pl3  86  ARG86       0.1354
    102  N         33.6810   34.0230   31.2680 N.3   140  LEU140     -0.1245
    103  CA        32.5310   33.2930   30.7430 C.3   140  LEU140      0.1561
    104  C         32.8300   32.9020   29.2930 C.2   140  LEU140      0.2260
    105  O         32.6050   31.7850   28.8880 O.2   140  LEU140     -0.2867
    106  CB        31.2890   34.2060   30.7550 C.3   140  LEU140      0.0270
    107  CG        30.1060   33.7250   29.9220 C.3   140  LEU140      0.0019
    108  CD1       29.5860   32.3970   30.4780 C.3   140  LEU140      0.0001
    109  CD2       28.9780   34.7570   29.9820 C.3   140  LEU140      0.0001
    110  N         33.2750   29.1830   27.7230 N.3   144  GLN144     -0.1245
    111  CA        32.3450   28.7760   26.6810 C.3   144  GLN144      0.1566
    112  C         33.1730   28.4000   25.4610 C.2   144  GLN144      0.2260
    113  O         32.9170   27.4100   24.8250 O.2   144  GLN144     -0.2867
    114  CB        31.4010   29.9230   26.3110 C.3   144  GLN144      0.0367
    115  CG        30.3200   29.5460   25.3550 C.3   144  GLN144      0.0905
    116  CD        29.1310   28.8500   26.0550 C.2   144  GLN144      0.2608
    117  OE1       27.9850   28.8750   25.5570 O.2   144  GLN144     -0.2717
    118  NE2       29.3960   28.2300   27.1840 N.am  144  GLN144     -0.0878
    119  N         34.7640   24.9140   25.8600 N.3   147  ASP147     -0.1239
    120  CA        33.7200   23.8770   25.8440 C.3   147  ASP147      0.1674
    121  C         33.2600   23.6480   24.3820 C.2   147  ASP147      0.2266
    122  O         33.1160   22.5090   23.9240 O.2   147  ASP147     -0.2867
    123  CB        32.5610   24.3090   26.7480 C.3   147  ASP147      0.1410
    124  CG        31.6890   23.1250   27.2220 C.2   147  ASP147      0.3668
    125  OD1       32.2240   21.9960   27.4200 O.co2 147  ASP147     -0.2456
    126  OD2       30.4700   23.3350   27.4200 O.co2 147  ASP147     -0.2456
    127  N         33.7430   29.2240   32.6970 N.3   171  LYS171     -0.1231
    128  CA        32.3670   29.3060   32.1480 C.3   171  LYS171      0.1693
    129  C         31.2500   29.5490   33.1480 C.2   171  LYS171      0.2592
    130  O         30.5640   30.5780   33.0870 O.2   171  LYS171     -0.2718
    131  CB        31.9880   28.0250   31.3530 C.3   171  LYS171      0.0285
    132  CG        30.6950   28.1380   30.4780 C.3   171  LYS171      0.0035
    133  CD        30.3370   26.8480   29.7500 C.3   171  LYS171      0.0206
    134  CE        29.7010   25.8310   30.7010 C.3   171  LYS171      0.1093
    135  NZ        29.7330   24.4160   30.1750 N.3   171  LYS171     -0.1314
    136  N         31.0160   28.5800   34.0290 N.am  172  THR172     -0.1953
    137  CA        29.9150   28.7090   34.9930 C.3   172  THR172      0.1897
    138  C         30.2730   29.6430   36.1750 C.2   172  THR172      0.2313
    139  O         29.3990   30.3520   36.6820 O.2   172  THR172     -0.2863
    140  CB        29.4880   27.3130   35.5140 C.3   172  THR172      0.1794
    141  OG1       29.3000   26.4540   34.3890 O.3   172  THR172     -0.2208
    142  CG2       28.1840   27.3800   36.2640 C.3   172  THR172      0.0378
    143  N         29.4000   34.0130   35.7610 N.3   175  LEU175     -0.1231
    144  CA        28.2150   34.7550   36.1990 C.3   175  LEU175      0.1693
    145  C         27.9710   34.6410   37.7050 C.2   175  LEU175      0.2592
    146  O         27.4290   35.5690   38.3330 O.2   175  LEU175     -0.2718
    147  CB        26.9740   34.3490   35.4160 C.3   175  LEU175      0.0284
    148  CG        27.0240   34.7320   33.9270 C.3   175  LEU175      0.0019
    149  CD1       25.7330   34.2600   33.2520 C.3   175  LEU175      0.0001
    150  CD2       27.2600   36.2750   33.7350 C.3   175  LEU175      0.0001
    151  N         28.3870   33.5210   38.2980 N.am  176  PHE176     -0.1976
    152  CA        28.2740   33.3580   39.7530 C.3   176  PHE176      0.1639
    153  C         29.2330   34.3690   40.3970 C.2   176  PHE176      0.2290
    154  O         28.8010   35.2050   41.2090 O.2   176  PHE176     -0.2864
    155  CB        28.6480   31.9430   40.1790 C.3   176  PHE176      0.0560
    156  CG        27.5070   30.9610   40.1380 C.ar  176  PHE176     -0.0200
    157  CD1       26.6510   30.8280   41.2280 C.ar  176  PHE176     -0.0042
    158  CD2       27.2470   30.2220   38.9990 C.ar  176  PHE176     -0.0042
    159  CE1       25.5560   29.9750   41.1730 C.ar  176  PHE176     -0.0003
    160  CE2       26.1590   29.3650   38.9220 C.ar  176  PHE176     -0.0003
    161  CZ        25.3080   29.2330   40.0050 C.ar  176  PHE176     -0.0000
    162  N         28.1430   38.1430   40.0220 N.3   179  THR179     -0.1218
    163  CA        27.1170   38.6140   40.9720 C.3   179  THR179      0.1862
    164  C         27.6870   38.8140   42.3710 C.2   179  THR179      0.2287
    165  O         27.5470   39.8770   43.0030 O.2   179  THR179     -0.2866
    166  CB        26.0090   37.5980   41.1230 C.3   179  THR179      0.1770
    167  OG1       25.5790   37.1800   39.8300 O.3   179  THR179     -0.2211
    168  CG2       24.8540   38.1930   41.8950 C.3   179  THR179      0.0375
    169  N         30.9650   30.4150   46.1640 N.3   196  ILE196     -0.1245
    170  CA        30.2100   30.6340   44.9220 C.3   196  ILE196      0.1561
    171  C         30.8640   29.8330   43.7450 C.2   196  ILE196      0.2260
    172  O         30.1510   29.3240   42.8360 O.2   196  ILE196     -0.2867
    173  CB        30.0680   32.1650   44.6390 C.3   196  ILE196      0.0252
    174  CG1       28.6230   32.4860   44.2110 C.3   196  ILE196      0.0019
    175  CG2       31.0170   32.6150   43.5710 C.3   196  ILE196      0.0019
    176  CD1       27.5860   32.1270   45.2490 C.3   196  ILE196      0.0001
    177  N         26.6400   23.0580   40.3090 N.3   203  TYR203     -0.1227
    178  CA        25.5760   23.3920   39.3580 C.3   203  TYR203      0.1736
    179  C         25.8320   22.8160   37.9420 C.2   203  TYR203      0.2595
    180  O         24.9130   22.2140   37.3590 O.2   203  TYR203     -0.2718
    181  CB        25.4010   24.9210   39.2900 C.3   203  TYR203      0.0548
    182  CG        24.4530   25.3770   38.1960 C.ar  203  TYR203     -0.0200
    183  CD1       23.0770   25.3760   38.3910 C.ar  203  TYR203     -0.0009
    184  CD2       24.9350   25.6760   36.9050 C.ar  203  TYR203     -0.0009
    185  CE1       22.2060   25.6440   37.3360 C.ar  203  TYR203      0.0417
    186  CE2       24.0740   25.9370   35.8520 C.ar  203  TYR203      0.0417
    187  CZ        22.7060   25.9160   36.0630 C.ar  203  TYR203      0.1957
    188  OH        21.8360   26.1100   34.9830 O.3   203  TYR203     -0.2866
    189  N         27.0590   22.9770   37.4040 N.am  204  GLN204     -0.1979
    190  CA        27.3490   22.4810   36.0540 C.3   204  GLN204      0.1601
    191  C         27.4300   20.9450   35.9870 C.2   204  GLN204      0.2287
    192  O         26.9490   20.3130   35.0490 O.2   204  GLN204     -0.2864
    193  CB        28.6440   23.0910   35.4850 C.3   204  GLN204      0.0394
    194  CG        28.7850   22.7620   33.9820 C.3   204  GLN204      0.0908
    195  CD        27.5960   23.3290   33.2100 C.2   204  GLN204      0.2608
    196  OE1       27.3100   24.5340   33.3190 O.2   204  GLN204     -0.2717
    197  NE2       26.8620   22.4710   32.4770 N.am  204  GLN204     -0.0878
    198  N         23.8610   19.7370   36.1940 N.3   207  ASP207     -0.1239
    199  CA        23.1940   20.0350   34.9060 C.3   207  ASP207      0.1674
    200  C         23.5520   18.8770   33.9630 C.2   207  ASP207      0.2266
    201  O         22.6700   18.2310   33.4290 O.2   207  ASP207     -0.2867
    202  CB        23.7150   21.3750   34.3010 C.3   207  ASP207      0.1410
    203  CG        23.0590   21.7260   32.9390 C.2   207  ASP207      0.3668
    204  OD1       21.7860   21.7280   32.9020 O.co2 207  ASP207     -0.2456
    205  OD2       23.7960   22.0000   31.9130 O.co2 207  ASP207     -0.2456
    206  N         20.7580   15.8650   32.7680 N.3   211  ASN211     -0.1240
    207  CA        20.4400   15.7580   31.3440 C.3   211  ASN211      0.1653
    208  C         20.4190   14.2590   30.8870 C.2   211  ASN211      0.2266
    209  O         19.6150   13.8750   30.0600 O.2   211  ASN211     -0.2867
    210  CB        21.4930   16.5360   30.5430 C.3   211  ASN211      0.1155
    211  CG        21.0900   16.7570   29.1250 C.2   211  ASN211      0.2627
    212  OD1       21.3720   15.9320   28.2520 O.2   211  ASN211     -0.2716
    213  ND2       20.4080   17.8780   28.8700 N.am  211  ASN211     -0.0877
    214  N         22.3100   16.6740   25.4610 N.3   223  ASP223     -0.1239
    215  CA        23.7630   16.8040   25.5350 C.3   223  ASP223      0.1674
    216  C         24.4420   15.7820   24.6030 C.2   223  ASP223      0.2266
    217  O         25.5220   16.0240   24.0870 O.2   223  ASP223     -0.2867
    218  CB        24.2490   16.5830   26.9720 C.3   223  ASP223      0.1410
    219  CG        24.0370   17.7920   27.8720 C.2   223  ASP223      0.3668
    220  OD1       23.5280   18.8290   27.4020 O.co2 223  ASP223     -0.2456
    221  OD2       24.4040   17.7190   29.0700 O.co2 223  ASP223     -0.2456
    222  N         23.9970   17.0680   21.0420 N.3   226  GLU226     -0.1245
    223  CA        24.9170   18.2010   20.9380 C.3   226  GLU226      0.1567
    224  C         26.4010   17.7000   20.8160 C.2   226  GLU226      0.2260
    225  O         27.2560   18.3640   20.2110 O.2   226  GLU226     -0.2867
    226  CB        24.7600   19.0960   22.1920 C.3   226  GLU226      0.0388
    227  CG        25.6300   20.3450   22.1410 C.3   226  GLU226      0.1160
    228  CD        25.7170   21.0760   23.4720 C.2   226  GLU226      0.3649
    229  OE1       24.6790   21.0450   24.2430 O.co2 226  GLU226     -0.2457
    230  OE2       26.8050   21.6920   23.7350 O.co2 226  GLU226     -0.2457
    231  N         28.4760   17.1360   23.3790 N.3   228  LYS228     -0.1245
    232  CA        29.3370   17.8220   24.3500 C.3   228  LYS228      0.1561
    233  C         30.1420   16.9760   25.3560 C.2   228  LYS228      0.2260
    234  O         29.7270   15.8520   25.7260 O.2   228  LYS228     -0.2867
    235  CB        28.5160   18.8980   25.0460 C.3   228  LYS228      0.0271
    236  CG        28.2360   18.7030   26.4930 C.3   228  LYS228      0.0035
    237  CD        27.2480   19.7650   26.8730 C.3   228  LYS228      0.0206
    238  CE        27.6120   20.3950   28.2070 C.3   228  LYS228      0.1093
    239  NZ        26.5580   21.3330   28.5630 N.3   228  LYS228     -0.1314
@<TRIPOS>BOND
     1    85    86    2
     2    85    84    1
     3   225   224    2
     4    78    77    2
     5    83    84    1
     6   224   223    1
     7    84    87    1
     8    77    76    1
     9   223   222    1
    10   223   226    1
    11   227   226    1
    12   227   228    1
    13    87    88    1
    14    76    79    1
    15    76    75    1
    16    70    69    2
    17    79    80    1
    18    89    88   ar
    19    75    69   am
    20    69    68    1
    21    88    90   ar
    22   231   232    1
    23   228   230   ar
    24   228   229   ar
    25    67    68    1
    26   122   121    2
    27   217   216    2
    28    68    71    1
    29    80    82   ar
    30    80    81   ar
    31   232   235    1
    32   232   233    1
    33   121   120    1
    34   216   215    1
    35   113   112    2
    36    62    61    2
    37   235   236    1
    38    91    92    1
    39   115   116    1
    40   115   114    1
    41   233   234    2
    42   112   111    1
    43   214   215    1
    44   215   218    1
    45   117   116    2
    46    71    72    1
    47    61    60    1
    48   120   119    1
    49   120   123    1
    50    72    74   ar
    51    72    73   ar
    52   116   118   am
    53    95    92    1
    54    95    96    1
    55   114   111    1
    56    56    55    2
    57   236   237    1
    58    92    93    1
    59   111   110    1
    60   123   124    1
    61   237   238    1
    62   218   219    1
    63    55    54    1
    64    55    59   am
    65    94    93    2
    66    60    59    1
    67    60    63    1
    68   124   125   ar
    69   124   126   ar
    70   101    99    1
    71    96    97    1
    72   220   219   ar
    73    98    99    2
    74    98    97    1
    75    54    53    1
    76    54    57    1
    77   219   221   ar
    78    99   100    1
    79    63    64    1
    80   238   239    1
    81   212   211    2
    82    57    58    1
    83   213   211   am
    84   105   104    2
    85   211   210    1
    86   104   103    1
    87    64    66    1
    88    64    65    1
    89   133   132    1
    90   133   134    1
    91   107   109    1
    92   107   108    1
    93   107   106    1
    94   209   208    2
    95   135   134    1
    96    46    45    2
    97   132   131    1
    98   210   207    1
    99   103   106    1
   100   103   102    1
   101   208   207    1
   102    45    44    1
   103   207   206    1
   104   131   128    1
   105   205   203   ar
   106   128   127    1
   107   128   129    1
   108    44    43    1
   109    44    47    1
   110   197   195   am
   111   204   203   ar
   112   203   202    1
   113   130   129    2
   114   129   136   am
   115    50    52   ar
   116    50    48   ar
   117   195   196    2
   118   195   194    1
   119   149   148    1
   120    52    51   ar
   121   201   200    2
   122    48    47    1
   123    48    49   ar
   124    51    49   ar
   125   150   148    1
   126   148   147    1
   127   200   199    1
   128   194   193    1
   129   136   137    1
   130   202   199    1
   131   141   140    1
   132    39    38    2
   133   199   198    1
   134   188   187    1
   135   137   140    1
   136   137   138    1
   137   192   191    2
   138    11     9    1
   139   147   144    1
   140   193   190    1
   141   140   142    1
   142    38    37    1
   143   143   144    1
   144     9    10    1
   145     9     8    2
   146   186   187   ar
   147   186   184   ar
   148   191   190    1
   149   190   189    1
   150   187   185   ar
   151   138   139    2
   152   144   145    1
   153    36    37    1
   154     8     7    1
   155    37    40    1
   156   184   182   ar
   157     7     6    1
   158   185   183   ar
   159   180   179    2
   160   189   179   am
   161   145   151   am
   162   145   146    2
   163   179   178    1
   164    40    41    1
   165    40    42    1
   166   182   183   ar
   167   182   181    1
   168   151   152    1
   169     6     5    1
   170   160   158   ar
   171   160   161   ar
   172   158   156   ar
   173   181   178    1
   174   178   177    1
   175     5     2    1
   176   152   155    1
   177   152   153    1
   178   167   166    1
   179   161   159   ar
   180   162   163    1
   181   156   155    1
   182   156   157   ar
   183   153   154    2
   184     2     1    1
   185     2     3    1
   186   163   166    1
   187   163   164    1
   188   166   168    1
   189   159   157   ar
   190    27    25    1
   191     3     4    2
   192   164   165    2
   193   172   171    2
   194    25    24    1
   195    19    17    1
   196   175   173    1
   197   171   170    1
   198   174   173    1
   199   174   176    1
   200    24    26    1
   201    24    21    1
   202   173   170    1
   203    16    17    1
   204    16    13    1
   205    17    18    1
   206   170   169    1
   207    20    21    1
   208    20    14   am
   209    12    13    1
   210    21    22    1
   211    13    14    1
   212    14    15    2
   213    35    33    1
   214    22    23    2
   215    33    32    1
   216    32    34    1
   217    32    29    1
   218    28    29    1
   219    29    30    1
   220    30    31    2
