@<TRIPOS>MOLECULE
tmp/2e98A02.pdb
 116 111 0 0 0
SMALL
GASTEIGER

@<TRIPOS>ATOM
      1  N         38.1010   33.1490   49.8560 N.3    54  TYR54      -0.1227
      2  CA        38.4540   34.4370   49.3090 C.3    54  TYR54       0.1736
      3  C         38.2740   35.4510   50.4050 C.2    54  TYR54       0.2595
      4  O         37.1840   35.5620   50.9510 O.2    54  TYR54      -0.2718
      5  CB        37.4670   34.7470   48.1640 C.3    54  TYR54       0.0548
      6  CG        37.6090   36.1220   47.5680 C.ar   54  TYR54      -0.0200
      7  CD1       36.6640   37.0720   47.7850 C.ar   54  TYR54      -0.0009
      8  CD2       38.6800   36.4480   46.7430 C.ar   54  TYR54      -0.0009
      9  CE1       36.7370   38.3060   47.2480 C.ar   54  TYR54       0.0417
     10  CE2       38.7740   37.7210   46.1640 C.ar   54  TYR54       0.0417
     11  CZ        37.7790   38.6540   46.4530 C.ar   54  TYR54       0.1957
     12  OH        37.8710   39.9680   46.0720 O.3    54  TYR54      -0.2866
     13  N         39.3300   36.1880   50.7370 N.am   55  ALA55      -0.1980
     14  CA        39.2150   37.2160   51.7860 C.3    55  ALA55       0.1597
     15  C         38.7620   38.5350   51.1200 C.2    55  ALA55       0.2287
     16  O         39.5190   39.1280   50.3500 O.2    55  ALA55      -0.2864
     17  CB        40.6020   37.3880   52.4650 C.3    55  ALA55       0.0319
     18  N         38.1500   42.3300   51.1430 N.3    57  SER57      -0.1217
     19  CA        38.6290   43.4160   51.9960 C.3    57  SER57       0.1889
     20  C         37.8110   44.6820   51.8440 C.2    57  SER57       0.2288
     21  O         37.8290   45.3170   50.7930 O.2    57  SER57      -0.2866
     22  CB        40.1030   43.7690   51.6750 C.3    57  SER57       0.2089
     23  OG        40.5180   44.7970   52.6000 O.3    57  SER57      -0.2183
     24  N         40.5930   47.7010   52.1140 N.3    60  ASN60      -0.1240
     25  CA        41.5540   47.9230   51.0320 C.3    60  ASN60       0.1653
     26  C         41.4010   49.2090   50.2460 C.2    60  ASN60       0.2266
     27  O         42.4120   49.7110   49.7160 O.2    60  ASN60      -0.2867
     28  CB        41.5620   46.7630   50.0270 C.3    60  ASN60       0.1155
     29  CG        42.7050   45.7530   50.2840 C.2    60  ASN60       0.2627
     30  OD1       42.8410   44.7630   49.5500 O.2    60  ASN60      -0.2716
     31  ND2       43.5050   45.9900   51.3220 N.am   60  ASN60      -0.0877
     32  N         48.9850   47.4780   49.9710 N.3    68  VAL68      -0.1245
     33  CA        48.2790   46.2810   49.5370 C.3    68  VAL68       0.1561
     34  C         49.3340   45.2610   49.1040 C.2    68  VAL68       0.2260
     35  O         49.4170   44.1410   49.6330 O.2    68  VAL68      -0.2867
     36  CB        47.3470   46.5860   48.3370 C.3    68  VAL68       0.0252
     37  CG1       46.5890   45.3250   47.9400 C.3    68  VAL68       0.0019
     38  CG2       46.3580   47.6960   48.6950 C.3    68  VAL68       0.0019
     39  N         51.1150   43.7300   51.6150 N.3    71  LEU71      -0.1231
     40  CA        50.1950   42.8700   52.3500 C.3    71  LEU71       0.1693
     41  C         50.1750   41.4930   51.7120 C.2    71  LEU71       0.2591
     42  O         50.0270   40.4890   52.4080 O.2    71  LEU71      -0.2718
     43  CB        48.7890   43.4710   52.3790 C.3    71  LEU71       0.0284
     44  CG        48.6120   44.5970   53.4070 C.3    71  LEU71       0.0019
     45  CD1       47.1380   44.8650   53.6670 C.3    71  LEU71       0.0001
     46  CD2       49.2980   44.2170   54.7160 C.3    71  LEU71       0.0001
     47  N         50.3360   41.4390   50.3900 N.am   72  MET72      -0.1979
     48  CA        50.3830   40.1500   49.6900 C.3    72  MET72       0.1605
     49  C         51.6180   39.3500   50.0990 C.2    72  MET72       0.2287
     50  O         51.5860   38.1210   50.1400 O.2    72  MET72      -0.2864
     51  CB        50.3890   40.3600   48.1800 C.3    72  MET72       0.0413
     52  CG        49.0090   40.5040   47.5900 C.3    72  MET72       0.0598
     53  SD        47.9380   39.1020   48.0490 S.3    72  MET72      -0.1393
     54  CE        49.1520   37.7270   48.1630 C.3    72  MET72       0.0692
     55  N         53.2370   39.4920   53.1480 N.3    74  LEU74      -0.1231
     56  CA        53.1020   38.9710   54.5040 C.3    74  LEU74       0.1693
     57  C         52.2440   37.7250   54.4130 C.2    74  LEU74       0.2592
     58  O         52.4550   36.7540   55.1330 O.2    74  LEU74      -0.2718
     59  CB        52.4280   39.9940   55.4390 C.3    74  LEU74       0.0284
     60  CG        53.1310   41.3350   55.7330 C.3    74  LEU74       0.0019
     61  CD1       52.3100   42.1580   56.7500 C.3    74  LEU74       0.0001
     62  CD2       54.5270   41.0760   56.2840 C.3    74  LEU74       0.0001
     63  N         51.2810   37.7480   53.5060 N.am   75  PHE75      -0.1976
     64  CA        50.4110   36.6000   53.3570 C.3    75  PHE75       0.1639
     65  C         51.2420   35.3730   53.0000 C.2    75  PHE75       0.2290
     66  O         51.1420   34.3440   53.6580 O.2    75  PHE75      -0.2864
     67  CB        49.3580   36.8500   52.2880 C.3    75  PHE75       0.0560
     68  CG        48.6670   35.6030   51.8360 C.ar   75  PHE75      -0.0200
     69  CD1       47.8140   34.9200   52.6900 C.ar   75  PHE75      -0.0042
     70  CD2       48.9540   35.0490   50.5850 C.ar   75  PHE75      -0.0042
     71  CE1       47.2580   33.6850   52.3080 C.ar   75  PHE75      -0.0003
     72  CE2       48.4060   33.8190   50.1910 C.ar   75  PHE75      -0.0003
     73  CZ        47.5600   33.1370   51.0540 C.ar   75  PHE75      -0.0000
     74  N         53.3750   34.2980   55.9220 N.3    78  ALA78      -0.1245
     75  CA        52.6680   33.5670   56.9710 C.3    78  ALA78       0.1562
     76  C         52.3440   32.1640   56.4900 C.2    78  ALA78       0.2260
     77  O         52.2960   31.2110   57.2700 O.2    78  ALA78      -0.2867
     78  CB        51.3920   34.3030   57.3470 C.3    78  ALA78       0.0290
     79  N         43.3170   28.6820   48.1860 N.3   127  ILE127     -0.1231
     80  CA        43.2900   30.0110   48.7650 C.3   127  ILE127      0.1692
     81  C         43.4860   31.0240   47.6650 C.2   127  ILE127      0.2592
     82  O         44.4020   30.9120   46.8630 O.2   127  ILE127     -0.2718
     83  CB        44.3650   30.2100   49.9020 C.3   127  ILE127      0.0266
     84  CG1       44.0090   29.3240   51.1000 C.3   127  ILE127      0.0019
     85  CG2       44.3650   31.6900   50.3440 C.3   127  ILE127      0.0020
     86  CD1       45.0460   29.3200   52.1840 C.3   127  ILE127      0.0001
     87  N         42.5960   32.0180   47.6150 N.am  128  ALA128     -0.1966
     88  CA        42.7210   33.0830   46.6090 C.3   128  ALA128      0.1728
     89  C         43.7050   34.1130   47.1030 C.2   128  ALA128      0.2616
     90  O         43.6530   34.5190   48.2820 O.2   128  ALA128     -0.2715
     91  CB        41.3550   33.7450   46.3510 C.3   128  ALA128      0.0334
     92  N         44.6060   34.5150   46.2000 N.am  129  ALA129     -0.1963
     93  CA        45.6660   35.5140   46.4800 C.3   129  ALA129      0.1728
     94  C         45.8050   36.2990   45.1860 C.2   129  ALA129      0.2616
     95  O         46.2270   35.7340   44.1580 O.2   129  ALA129     -0.2715
     96  CB        47.0230   34.7980   46.7950 C.3   129  ALA129      0.0334
     97  N         45.4580   37.5780   45.2250 N.am  130  ASN130     -0.1958
     98  CA        45.4990   38.4280   44.0410 C.3   130  ASN130      0.1819
     99  C         44.6000   37.8030   42.9700 C.2   130  ASN130      0.2621
    100  O         44.9280   37.7590   41.7730 O.2   130  ASN130     -0.2715
    101  CB        46.9150   38.5920   43.4670 C.3   130  ASN130      0.1195
    102  CG        47.0240   39.8380   42.6310 C.2   130  ASN130      0.2630
    103  OD1       46.3050   40.8040   42.8860 O.2   130  ASN130     -0.2716
    104  ND2       47.9050   39.8390   41.6390 N.am  130  ASN130     -0.0877
    105  N         43.4480   37.3080   43.4200 N.am  131  TYR131     -0.1974
    106  CA        42.5300   36.6680   42.4760 C.3   131  TYR131      0.1639
    107  C         41.4020   37.6050   42.0480 C.2   131  TYR131      0.2290
    108  O         40.9500   38.4390   42.8370 O.2   131  TYR131     -0.2864
    109  CB        41.9320   35.4370   43.1390 C.3   131  TYR131      0.0560
    110  CG        40.9280   34.7480   42.2640 C.ar  131  TYR131     -0.0198
    111  CD1       39.5840   35.1300   42.3060 C.ar  131  TYR131     -0.0009
    112  CD2       41.3200   33.7710   41.3430 C.ar  131  TYR131     -0.0009
    113  CE1       38.6570   34.5750   41.4410 C.ar  131  TYR131      0.0417
    114  CE2       40.3990   33.1880   40.4830 C.ar  131  TYR131      0.0417
    115  CZ        39.0700   33.5960   40.5080 C.ar  131  TYR131      0.1957
    116  OH        38.1830   33.1400   39.5540 O.3   131  TYR131     -0.2866
@<TRIPOS>BOND
     1   116   115    1
     2   114   115   ar
     3   114   112   ar
     4   115   113   ar
     5   112   110   ar
     6   113   111   ar
     7   104   102   am
     8   100    99    2
     9   107   106    1
    10   107   108    2
    11   110   111   ar
    12   110   109    1
    13   106   109    1
    14   106   105    1
    15   102   103    2
    16   102   101    1
    17    99   105   am
    18    99    98    1
    19   101    98    1
    20    98    97    1
    21    95    94    2
    22    94    97   am
    23    94    93    1
    24    12    11    1
    25    10    11   ar
    26    10     8   ar
    27    92    93    1
    28    92    89   am
    29    91    88    1
    30    11     9   ar
    31    93    96    1
    32    88    89    1
    33    88    87    1
    34     8     6   ar
    35    82    81    2
    36    89    90    2
    37     9     7   ar
    38     6     7   ar
    39     6     5    1
    40    52    53    1
    41    52    51    1
    42    87    81   am
    43    81    80    1
    44    37    36    1
    45    53    54    1
    46     5     2    1
    47    51    48    1
    48    79    80    1
    49    36    38    1
    50    36    33    1
    51    80    83    1
    52    34    33    1
    53    34    35    2
    54     2     1    1
    55     2     3    1
    56    33    32    1
    57    30    29    2
    58    48    49    1
    59    48    47    1
    60    27    26    2
    61    83    85    1
    62    83    84    1
    63    28    29    1
    64    28    25    1
    65    49    50    2
    66    72    70   ar
    67    72    73   ar
    68    26    25    1
    69    29    31   am
    70    16    15    2
    71    47    41   am
    72     3    13   am
    73     3     4    2
    74    70    68   ar
    75    13    14    1
    76    21    20    2
    77    25    24    1
    78    73    71   ar
    79    84    86    1
    80    15    14    1
    81    18    19    1
    82    39    40    1
    83    22    19    1
    84    22    23    1
    85    41    40    1
    86    41    42    2
    87    14    17    1
    88    68    67    1
    89    68    69   ar
    90    20    19    1
    91    67    64    1
    92    71    69   ar
    93    40    43    1
    94    43    44    1
    95    65    64    1
    96    65    66    2
    97    55    56    1
    98    64    63    1
    99    44    45    1
   100    44    46    1
   101    63    57   am
   102    57    56    1
   103    57    58    2
   104    56    59    1
   105    59    60    1
   106    60    62    1
   107    60    61    1
   108    74    75    1
   109    76    75    1
   110    76    77    2
   111    75    78    1
