@<TRIPOS>MOLECULE
tmp/2e99B00.pdb
 147 140 0 0 0
SMALL
GASTEIGER

@<TRIPOS>ATOM
      1  N         13.5270   35.7870   34.9110 N.3     9  MET9       -0.1230
      2  CA        12.0960   35.5260   35.0980 C.3     9  MET9        0.1702
      3  C         11.8840   34.0390   35.2900 C.2     9  MET9        0.2592
      4  O         12.2960   33.2410   34.4120 O.2     9  MET9       -0.2718
      5  CB        11.3360   35.9970   33.8650 C.3     9  MET9        0.0401
      6  CG        11.4370   37.5000   33.6770 C.3     9  MET9        0.0596
      7  SD        10.7820   38.1180   32.1200 S.3     9  MET9       -0.1393
      8  CE         9.3570   37.1630   31.8320 C.3     9  MET9        0.0692
      9  N         11.2740   33.6280   36.4100 N.am   10  ASP10      -0.1960
     10  CA        11.0670   32.2040   36.6300 C.3    10  ASP10       0.1840
     11  C          9.8110   31.9990   37.4810 C.2    10  ASP10       0.2623
     12  O          9.4610   32.8460   38.2980 O.2    10  ASP10      -0.2715
     13  CB        12.3050   31.6140   37.3260 C.3    10  ASP10       0.1450
     14  CG        12.2690   30.0740   37.4910 C.2    10  ASP10       0.3671
     15  OD1       11.5650   29.4200   36.6850 O.co2  10  ASP10      -0.2456
     16  OD2       13.0070   29.5230   38.3960 O.co2  10  ASP10      -0.2456
     17  N          9.1290   30.8800   37.2420 N.am   11  GLY11      -0.1940
     18  CA         7.9680   30.5470   38.0350 C.3    11  GLY11       0.2014
     19  C          6.6470   30.4930   37.3130 C.2    11  GLY11       0.2639
     20  O          5.6230   30.2790   37.9750 O.2    11  GLY11      -0.2714
     21  N          6.6320   30.6540   35.9930 N.am   12  ASN12      -0.1958
     22  CA         5.3530   30.6230   35.2690 C.3    12  ASN12       0.1819
     23  C          4.5730   29.2860   35.3570 C.2    12  ASN12       0.2622
     24  O          3.3690   29.2800   35.5990 O.2    12  ASN12      -0.2715
     25  CB         5.5630   30.8980   33.8030 C.3    12  ASN12       0.1195
     26  CG         5.9560   32.3390   33.5030 C.2    12  ASN12       0.2630
     27  OD1        5.5920   33.2940   34.1880 O.2    12  ASN12      -0.2716
     28  ND2        6.6850   32.4910   32.3750 N.am   12  ASN12      -0.0877
     29  N          5.2740   28.1720   35.1330 N.am   13  GLY13      -0.1940
     30  CA         4.6410   26.8710   35.1770 C.3    13  GLY13       0.2014
     31  C          4.1900   26.5360   36.5880 C.2    13  GLY13       0.2638
     32  O          3.0980   26.0260   36.7770 O.2    13  GLY13      -0.2714
     33  N          5.0200   26.8290   37.5880 N.am   14  ARG14      -0.1977
     34  CA         4.6560   26.5400   38.9690 C.3    14  ARG14       0.1597
     35  C          3.4020   27.3430   39.3320 C.2    14  ARG14       0.2287
     36  O          2.5100   26.8440   40.0380 O.2    14  ARG14      -0.2864
     37  CB         5.8080   26.9070   39.9010 C.3    14  ARG14       0.0334
     38  CG         5.6470   26.3960   41.3010 C.3    14  ARG14       0.0492
     39  CD         6.8470   26.7620   42.1810 C.3    14  ARG14       0.2205
     40  NE         8.1380   26.2310   41.7080 N.pl3  14  ARG14      -0.0865
     41  CZ         8.6980   25.1020   42.1570 C.cat  14  ARG14       0.5346
     42  NH1        8.0760   24.3690   43.0820 N.pl3  14  ARG14       0.1354
     43  NH2        9.9020   24.7220   41.7210 N.pl3  14  ARG14       0.1354
     44  N         -0.0440   25.0210   31.3040 N.3    23  ARG23      -0.1245
     45  CA         1.1720   25.7880   31.0210 C.3    23  ARG23       0.1563
     46  C          0.9590   27.0830   30.2210 C.2    23  ARG23       0.2260
     47  O          1.5160   28.1390   30.5580 O.2    23  ARG23      -0.2867
     48  CB         2.1570   24.8720   30.3110 C.3    23  ARG23       0.0307
     49  CG         3.5290   25.4860   30.1150 C.3    23  ARG23       0.0489
     50  CD         4.5200   24.3970   29.7830 C.3    23  ARG23       0.2205
     51  NE         4.4650   23.9670   28.3840 N.pl3  23  ARG23      -0.0865
     52  CZ         5.2020   22.9600   27.9010 C.cat  23  ARG23       0.5346
     53  NH1        6.0230   22.2940   28.7110 N.pl3  23  ARG23       0.1354
     54  NH2        5.1520   22.6380   26.6110 N.pl3  23  ARG23       0.1354
     55  N          2.1020   31.0980   30.7480 N.3    27  HIS27      -0.1241
     56  CA         2.8340   31.8410   29.7260 C.3    27  HIS27       0.1621
     57  C          2.1300   33.1760   29.5010 C.2    27  HIS27       0.2264
     58  O          2.7480   34.2430   29.4830 O.2    27  HIS27      -0.2867
     59  CB         2.9250   30.9960   28.4340 C.3    27  HIS27       0.0745
     60  CG         3.8920   29.8610   28.5490 C.ar   27  HIS27       0.0817
     61  ND1        3.8820   28.7600   27.7130 N.ar   27  HIS27      -0.2268
     62  CD2        4.9040   29.6610   29.4210 C.ar   27  HIS27       0.1154
     63  CE1        4.8500   27.9320   28.0730 C.ar   27  HIS27       0.1986
     64  NE2        5.4850   28.4600   29.1050 N.ar   27  HIS27      -0.2212
     65  N          3.5460   36.9300   30.2380 N.3    31  ALA31      -0.1245
     66  CA         3.7160   37.9910   29.2590 C.3    31  ALA31       0.1562
     67  C          3.1560   39.2690   29.8210 C.2    31  ALA31       0.2260
     68  O          3.7220   40.3370   29.6090 O.2    31  ALA31      -0.2867
     69  CB         3.0140   37.6340   27.9480 C.3    31  ALA31       0.0290
     70  N          5.6210   40.6850   32.0600 N.3    34  VAL34      -0.1245
     71  CA         6.7250   41.3280   31.3330 C.3    34  VAL34       0.1561
     72  C          6.2880   42.7690   30.9630 C.2    34  VAL34       0.2260
     73  O          7.0040   43.7390   31.1590 O.2    34  VAL34      -0.2867
     74  CB         7.0850   40.5830   29.9970 C.3    34  VAL34       0.0252
     75  CG1        7.9630   41.4980   29.1210 C.3    34  VAL34       0.0019
     76  CG2        7.8260   39.2730   30.3000 C.3    34  VAL34       0.0019
     77  N         16.0500   41.1670   30.2010 N.3    51  LEU51      -0.1245
     78  CA        15.1960   40.0500   30.6180 C.3    51  LEU51       0.1561
     79  C         15.6070   38.6730   30.0950 C.2    51  LEU51       0.2260
     80  O         15.8590   38.4970   28.9090 O.2    51  LEU51      -0.2867
     81  CB        13.7370   40.3130   30.2030 C.3    51  LEU51       0.0270
     82  CG        13.1420   41.7000   30.6030 C.3    51  LEU51       0.0019
     83  CD1       11.7050   41.8140   30.0810 C.3    51  LEU51       0.0001
     84  CD2       13.1320   41.8410   32.1220 C.3    51  LEU51       0.0001
     85  N         14.3270   34.6580   30.2540 N.3    53  ALA53      -0.1231
     86  CA        13.2500   33.6880   30.5310 C.3    53  ALA53       0.1694
     87  C         13.9140   32.3690   30.9640 C.2    53  ALA53       0.2592
     88  O         14.5880   31.6900   30.1560 O.2    53  ALA53      -0.2718
     89  CB        12.4040   33.4640   29.2380 C.3    53  ALA53       0.0304
     90  N         13.7940   32.0110   32.2400 N.am   54  PHE54      -0.1962
     91  CA        14.4060   30.7570   32.6560 C.3    54  PHE54       0.1771
     92  C         13.4720   29.5620   32.4560 C.2    54  PHE54       0.2620
     93  O         12.3150   29.5620   32.9200 O.2    54  PHE54      -0.2715
     94  CB        14.8140   30.7670   34.1200 C.3    54  PHE54       0.0574
     95  CG        15.3420   29.4350   34.6120 C.ar   54  PHE54      -0.0200
     96  CD1       16.7010   29.1310   34.5290 C.ar   54  PHE54      -0.0042
     97  CD2       14.4660   28.4870   35.1680 C.ar   54  PHE54      -0.0042
     98  CE1       17.2040   27.9260   34.9820 C.ar   54  PHE54      -0.0003
     99  CE2       14.9450   27.2670   35.6390 C.ar   54  PHE54      -0.0003
    100  CZ        16.3450   26.9820   35.5430 C.ar   54  PHE54      -0.0000
    101  N         13.9970   28.5450   31.7810 N.am   55  SER55      -0.1936
    102  CA        13.2530   27.3120   31.5810 C.3    55  SER55       0.2055
    103  C         14.1480   26.1150   31.9010 C.2    55  SER55       0.2643
    104  O         15.3170   26.0660   31.5130 O.2    55  SER55      -0.2714
    105  CB        12.7260   27.2070   30.1310 C.3    55  SER55       0.2130
    106  OG        11.8160   26.1110   30.0020 O.3    55  SER55      -0.2179
    107  N         13.5960   25.1670   32.6500 N.am   56  SER56      -0.1949
    108  CA        14.2820   23.9090   32.9910 C.3    56  SER56       0.1924
    109  C         14.1900   23.0080   31.7530 C.2    56  SER56       0.2314
    110  O         15.2040   22.3860   31.3540 O.2    56  SER56      -0.2863
    111  CB        13.5510   23.2130   34.1410 C.3    56  SER56       0.2116
    112  OG        13.1660   24.1680   35.1160 O.3    56  SER56      -0.2180
    113  N          5.2690   38.1130   18.2980 N.3    66  ALA66      -0.1245
    114  CA         5.5300   39.0490   19.4020 C.3    66  ALA66       0.1562
    115  C          6.2130   40.3060   18.8910 C.2    66  ALA66       0.2260
    116  O          5.8580   41.4370   19.2640 O.2    66  ALA66      -0.2867
    117  CB         6.4270   38.3760   20.5080 C.3    66  ALA66       0.0290
    118  N         15.6760   47.9770   26.1980 N.3   113  LEU113     -0.1245
    119  CA        15.1530   46.7100   26.6690 C.3   113  LEU113      0.1561
    120  C         15.9340   45.5860   25.9180 C.2   113  LEU113      0.2260
    121  O         15.8290   45.4720   24.6930 O.2   113  LEU113     -0.2867
    122  CB        13.6630   46.6470   26.3020 C.3   113  LEU113      0.0270
    123  CG        12.9920   45.3030   26.5680 C.3   113  LEU113      0.0019
    124  CD1       13.0690   44.9560   28.0930 C.3   113  LEU113      0.0001
    125  CD2       11.5450   45.3580   26.1400 C.3   113  LEU113      0.0001
    126  N         16.3940   41.6160   25.4000 N.3   115  ILE115     -0.1245
    127  CA        15.6690   40.3550   25.6040 C.3   115  ILE115      0.1561
    128  C         16.6630   39.2290   25.3250 C.2   115  ILE115      0.2260
    129  O         17.2420   39.1860   24.2490 O.2   115  ILE115     -0.2867
    130  CB        14.5300   40.1660   24.5980 C.3   115  ILE115      0.0252
    131  CG1       13.5060   41.2880   24.6860 C.3   115  ILE115      0.0019
    132  CG2       13.8390   38.8510   24.9060 C.3   115  ILE115      0.0019
    133  CD1       13.0600   41.5570   26.1210 C.3   115  ILE115      0.0001
    134  N          7.0570   34.5870   38.7840 N.3   195  TRP195     -0.1241
    135  CA         7.0110   35.6470   37.7880 C.3   195  TRP195      0.1605
    136  C          5.6380   36.2700   37.4870 C.2   195  TRP195      0.2264
    137  O          5.5100   37.4970   37.3780 O.2   195  TRP195     -0.2867
    138  CB         7.7260   35.1890   36.4870 C.3   195  TRP195      0.0550
    139  CG         7.7260   36.2720   35.4790 C.ar  195  TRP195      0.0003
    140  CD1        7.0530   36.2930   34.2550 C.ar  195  TRP195      0.0946
    141  CD2        8.3460   37.5490   35.6230 C.ar  195  TRP195      0.0152
    142  NE1        7.2340   37.5300   33.6540 N.ar  195  TRP195     -0.2442
    143  CE2        8.0180   38.3120   34.4660 C.ar  195  TRP195      0.0810
    144  CE3        9.1490   38.1450   36.6430 C.ar  195  TRP195      0.0012
    145  CZ2        8.4570   39.6110   34.2880 C.ar  195  TRP195      0.0191
    146  CZ3        9.5780   39.4720   36.4530 C.ar  195  TRP195      0.0001
    147  CH2        9.2340   40.1740   35.2930 C.ar  195  TRP195      0.0015
@<TRIPOS>BOND
     1   113   114    1
     2   115   116    2
     3   115   114    1
     4   114   117    1
     5   129   128    2
     6   130   131    1
     7   130   132    1
     8   130   127    1
     9   131   133    1
    10   121   120    2
    11   128   127    1
    12   126   127    1
    13   120   119    1
    14   125   123    1
    15   118   119    1
    16   122   123    1
    17   122   119    1
    18   123   124    1
    19    54    52    1
    20    61    63   ar
    21    61    60   ar
    22    52    51    2
    23    52    53    1
    24    69    66    1
    25    63    64   ar
    26    51    50    1
    27    59    60    1
    28    59    56    1
    29    60    62   ar
    30    80    79    2
    31    64    62   ar
    32    75    74    1
    33    89    86    1
    34    66    67    1
    35    66    65    1
    36    58    57    2
    37    57    56    1
    38    68    67    2
    39    56    55    1
    40    50    49    1
    41    74    76    1
    42    74    71    1
    43   106   105    1
    44    83    82    1
    45    79    78    1
    46    49    48    1
    47   105   102    1
    48    88    87    2
    49    77    78    1
    50    81    82    1
    51    81    78    1
    52    46    47    2
    53    46    45    1
    54    85    86    1
    55    48    45    1
    56    86    87    1
    57    82    84    1
    58    72    73    2
    59    72    71    1
    60    87    90   am
    61    45    44    1
    62    71    70    1
    63   110   109    2
    64   104   103    2
    65   102   101    1
    66   102   103    1
    67   109   108    1
    68   101    92   am
    69     8     7    1
    70   103   107   am
    71     7     6    1
    72    90    91    1
    73    28    26   am
    74    92    91    1
    75    92    93    2
    76   107   108    1
    77    91    94    1
    78   108   111    1
    79    26    25    1
    80    26    27    2
    81   142   140   ar
    82   142   143   ar
    83     6     5    1
    84    25    22    1
    85     5     2    1
    86    94    95    1
    87   111   112    1
    88   140   139   ar
    89   145   143   ar
    90   145   147   ar
    91     4     3    2
    92   143   141   ar
    93    96    95   ar
    94    96    98   ar
    95    95    97   ar
    96     1     2    1
    97    98   100   ar
    98     2     3    1
    99    29    30    1
   100    29    23   am
   101    97    99   ar
   102    30    31    1
   103    22    23    1
   104    22    21    1
   105     3     9   am
   106   147   146   ar
   107    23    24    2
   108   139   141   ar
   109   139   138    1
   110   100    99   ar
   111   141   144   ar
   112    21    19   am
   113     9    10    1
   114   146   144   ar
   115   138   135    1
   116    31    32    2
   117    31    33   am
   118    10    13    1
   119    10    11    1
   120    15    14   ar
   121    17    11   am
   122    17    18    1
   123    19    20    2
   124    19    18    1
   125    13    14    1
   126   137   136    2
   127    11    12    2
   128   136   135    1
   129    14    16   ar
   130    33    34    1
   131   135   134    1
   132    34    35    1
   133    34    37    1
   134    35    36    2
   135    37    38    1
   136    38    39    1
   137    40    41    2
   138    40    39    1
   139    43    41    1
   140    41    42    1
