@<TRIPOS>MOLECULE
tmp/2e99A01.pdb
 108 99 0 0 0
SMALL
GASTEIGER

@<TRIPOS>ATOM
      1  N         38.6560   31.0850   60.0510 N.3    37  VAL37      -0.1231
      2  CA        39.1180   30.3330   58.8720 C.3    37  VAL37       0.1692
      3  C         39.4940   28.9040   59.2920 C.2    37  VAL37       0.2591
      4  O         39.0480   27.9090   58.6820 O.2    37  VAL37      -0.2718
      5  CB        40.3550   30.9780   58.1820 C.3    37  VAL37       0.0266
      6  CG1       40.9910   29.9320   57.1620 C.3    37  VAL37       0.0020
      7  CG2       39.9450   32.2610   57.4380 C.3    37  VAL37       0.0020
      8  N         40.2980   28.7740   60.3500 N.am   38  ARG38      -0.1980
      9  CA        40.6970   27.4400   60.7700 C.3    38  ARG38       0.1597
     10  C         39.5080   26.5380   61.0800 C.2    38  ARG38       0.2287
     11  O         39.5000   25.3600   60.7390 O.2    38  ARG38      -0.2864
     12  CB        41.6390   27.5220   61.9930 C.3    38  ARG38       0.0334
     13  CG        42.8930   28.3310   61.6320 C.3    38  ARG38       0.0492
     14  CD        44.1020   28.0690   62.5390 C.3    38  ARG38       0.2205
     15  NE        45.0910   29.1430   62.3800 N.pl3  38  ARG38      -0.0865
     16  CZ        44.9670   30.3550   62.9370 C.cat  38  ARG38       0.5346
     17  NH1       43.9070   30.6470   63.6890 N.pl3  38  ARG38       0.1354
     18  NH2       45.8990   31.2780   62.7450 N.pl3  38  ARG38       0.1354
     19  N         37.7500   25.4420   57.8700 N.3    41  VAL41      -0.1231
     20  CA        38.5220   24.4140   57.1850 C.3    41  VAL41       0.1692
     21  C         38.3400   23.0680   57.8970 C.2    41  VAL41       0.2592
     22  O         38.1240   22.0960   57.2080 O.2    41  VAL41      -0.2718
     23  CB        40.0210   24.8530   57.1120 C.3    41  VAL41       0.0266
     24  CG1       40.9280   23.6860   56.6400 C.3    41  VAL41       0.0020
     25  CG2       40.1460   26.0340   56.1250 C.3    41  VAL41       0.0020
     26  N         38.3800   22.9990   59.2520 N.am   42  SER42      -0.1952
     27  CA        38.1730   21.7120   59.9710 C.3    42  SER42       0.1924
     28  C         36.7980   21.2310   59.7030 C.2    42  SER42       0.2314
     29  O         36.5970   20.0460   59.4860 O.2    42  SER42      -0.2863
     30  CB        38.2170   21.7910   61.5140 C.3    42  SER42       0.2116
     31  OG        39.2270   22.6430   61.9430 O.3    42  SER42      -0.2180
     32  N         36.6740   19.7310   56.1380 N.3    45  ALA45      -0.1231
     33  CA        37.4150   18.4690   56.0920 C.3    45  ALA45       0.1694
     34  C         36.6370   17.3800   56.8250 C.2    45  ALA45       0.2592
     35  O         36.5580   16.2520   56.3650 O.2    45  ALA45      -0.2718
     36  CB        38.7940   18.6330   56.7190 C.3    45  ALA45       0.0304
     37  N         36.0350   17.7140   57.9600 N.am   46  ASN46      -0.1974
     38  CA        35.3000   16.7040   58.6880 C.3    46  ASN46       0.1688
     39  C         33.9450   16.3700   58.0840 C.2    46  ASN46       0.2292
     40  O         33.3230   15.4130   58.4970 O.2    46  ASN46      -0.2864
     41  CB        35.1660   17.1150   60.1720 C.3    46  ASN46       0.1181
     42  CG        36.4760   17.0080   60.9100 C.2    46  ASN46       0.2629
     43  OD1       37.2450   16.1040   60.6610 O.2    46  ASN46      -0.2716
     44  ND2       36.7360   17.9170   61.8170 N.am   46  ASN46      -0.0877
     45  N         50.8470   32.8320   55.4010 N.3    80  LEU80      -0.1245
     46  CA        50.3460   31.5130   55.0530 C.3    80  LEU80       0.1561
     47  C         51.4890   30.5140   54.8180 C.2    80  LEU80       0.2260
     48  O         51.2720   29.4540   54.2460 O.2    80  LEU80      -0.2867
     49  CB        49.4580   31.6080   53.8010 C.3    80  LEU80       0.0270
     50  CG        48.6130   30.4050   53.3710 C.3    80  LEU80       0.0019
     51  CD1       47.5320   30.1230   54.3890 C.3    80  LEU80       0.0001
     52  CD2       47.9940   30.6950   52.0340 C.3    80  LEU80       0.0001
     53  N         51.8740   28.3850   58.1690 N.3    83  GLU83      -0.1245
     54  CA        50.6580   27.6150   58.2570 C.3    83  GLU83       0.1567
     55  C         50.6870   26.3870   57.3920 C.2    83  GLU83       0.2260
     56  O         49.9460   25.4630   57.6410 O.2    83  GLU83      -0.2867
     57  CB        49.4740   28.4820   57.8510 C.3    83  GLU83       0.0388
     58  CG        49.2490   29.6810   58.7430 C.3    83  GLU83       0.1160
     59  CD        48.7310   29.2930   60.0980 C.2    83  GLU83       0.3649
     60  OE1       48.3540   30.2030   60.8640 O.co2  83  GLU83      -0.2457
     61  OE2       48.6960   28.0810   60.4030 O.co2  83  GLU83      -0.2457
     62  N         51.1660   23.0810   59.1810 N.3    86  SER86      -0.1202
     63  CA        49.9490   22.6580   59.8460 C.3    86  SER86       0.2020
     64  C         48.9270   22.0870   58.8470 C.2    86  SER86       0.2618
     65  O         48.2880   21.0680   59.1130 O.2    86  SER86      -0.2717
     66  CB        49.3800   23.8610   60.6080 C.3    86  SER86       0.2103
     67  OG        48.0770   23.5770   61.0640 O.3    86  SER86      -0.2182
     68  N         48.7450   22.7370   57.7020 N.am   87  LEU87      -0.1979
     69  CA        47.8020   22.2170   56.6980 C.3    87  LEU87       0.1596
     70  C         48.2590   20.8210   56.2580 C.2    87  LEU87       0.2287
     71  O         47.4650   19.8790   56.1230 O.2    87  LEU87      -0.2864
     72  CB        47.7430   23.1510   55.4760 C.3    87  LEU87       0.0297
     73  CG        46.9170   24.4420   55.7090 C.3    87  LEU87       0.0022
     74  CD1       47.2090   25.4120   54.5890 C.3    87  LEU87       0.0001
     75  CD2       45.3830   24.1160   55.7670 C.3    87  LEU87       0.0001
     76  N         47.5330   18.1230   58.5600 N.3    90  HIS90      -0.1241
     77  CA        46.1090   17.7830   58.5300 C.3    90  HIS90       0.1621
     78  C         45.7220   17.1870   57.1770 C.2    90  HIS90       0.2264
     79  O         44.5480   17.0740   56.8690 O.2    90  HIS90      -0.2867
     80  CB        45.2380   19.0360   58.8230 C.3    90  HIS90       0.0745
     81  CG        45.3140   19.4740   60.2430 C.ar   90  HIS90       0.0817
     82  ND1       44.4860   18.9560   61.2140 N.ar   90  HIS90      -0.2268
     83  CD2       46.2490   20.1980   60.8960 C.ar   90  HIS90       0.1154
     84  CE1       44.9170   19.3350   62.4050 C.ar   90  HIS90       0.1986
     85  NE2       45.9840   20.0890   62.2370 N.ar   90  HIS90      -0.2212
     86  N         45.7080   18.2970   54.1080 N.3    92  VAL92      -0.1245
     87  CA        45.0450   19.2350   53.2300 C.3    92  VAL92       0.1561
     88  C         45.9550   19.5010   52.0340 C.2    92  VAL92       0.2260
     89  O         47.1620   19.6050   52.1760 O.2    92  VAL92      -0.2867
     90  CB        44.8010   20.5780   53.9840 C.3    92  VAL92       0.0252
     91  CG1       44.3230   21.6750   53.0330 C.3    92  VAL92       0.0019
     92  CG2       43.7660   20.3710   55.1020 C.3    92  VAL92       0.0019
     93  N         42.1640   22.8720   49.6290 N.3   126  LEU126     -0.1245
     94  CA        41.9250   24.2480   50.0620 C.3   126  LEU126      0.1561
     95  C         42.5460   25.2400   49.0700 C.2   126  LEU126      0.2260
     96  O         43.7410   25.2720   48.8820 O.2   126  LEU126     -0.2867
     97  CB        42.5470   24.4650   51.4480 C.3   126  LEU126      0.0270
     98  CG        42.4950   25.8870   52.0320 C.3   126  LEU126      0.0019
     99  CD1       40.9710   26.2730   52.2580 C.3   126  LEU126      0.0001
    100  CD2       43.2370   25.8800   53.3680 C.3   126  LEU126      0.0001
    101  N         43.1900   29.0910   48.1960 N.3   128  ILE128     -0.1245
    102  CA        43.1940   30.4150   48.7980 C.3   128  ILE128      0.1561
    103  C         43.3980   31.4460   47.6890 C.2   128  ILE128      0.2260
    104  O         44.3680   31.3500   46.8940 O.2   128  ILE128     -0.2867
    105  CB        44.3140   30.5020   49.8790 C.3   128  ILE128      0.0252
    106  CG1       43.9860   29.4820   50.9680 C.3   128  ILE128      0.0019
    107  CG2       44.3930   31.9420   50.5250 C.3   128  ILE128      0.0019
    108  CD1       45.0170   29.3940   52.0240 C.3   128  ILE128      0.0001
@<TRIPOS>BOND
     1   104   103    2
     2   103   102    1
     3   101   102    1
     4   102   105    1
     5    96    95    2
     6    95    94    1
     7    93    94    1
     8   105   107    1
     9   105   106    1
    10    94    97    1
    11   106   108    1
    12    97    98    1
    13    98    99    1
    14    98   100    1
    15    52    50    1
    16    88    89    2
    17    88    87    1
    18    91    90    1
    19    87    90    1
    20    87    86    1
    21    50    49    1
    22    50    51    1
    23    49    46    1
    24    90    92    1
    25    48    47    2
    26    74    73    1
    27    47    46    1
    28    46    45    1
    29    72    73    1
    30    72    69    1
    31    73    75    1
    32    33    32    1
    33    33    36    1
    34    33    34    1
    35    71    70    2
    36    25    23    1
    37    70    69    1
    38    35    34    2
    39    24    23    1
    40    69    68    1
    41    34    37   am
    42    79    78    2
    43    23    20    1
    44     6     5    1
    45    78    77    1
    46    20    19    1
    47    20    21    1
    48    22    21    2
    49    55    56    2
    50    55    54    1
    51     7     5    1
    52    68    64   am
    53    57    54    1
    54    57    58    1
    55    21    26   am
    56    37    38    1
    57    39    40    2
    58    39    38    1
    59    53    54    1
    60     5     2    1
    61    77    76    1
    62    77    80    1
    63     4     3    2
    64    38    41    1
    65    58    59    1
    66    80    81    1
    67    64    65    2
    68    64    63    1
    69     2     3    1
    70     2     1    1
    71    62    63    1
    72    26    27    1
    73     3     8   am
    74    29    28    2
    75    28    27    1
    76    63    66    1
    77    27    30    1
    78    59    61   ar
    79    59    60   ar
    80    41    42    1
    81    81    83   ar
    82    81    82   ar
    83     8     9    1
    84    66    67    1
    85    43    42    2
    86    11    10    2
    87     9    10    1
    88     9    12    1
    89    83    85   ar
    90    42    44   am
    91    82    84   ar
    92    30    31    1
    93    13    12    1
    94    13    14    1
    95    85    84   ar
    96    15    14    1
    97    15    16    2
    98    18    16    1
    99    16    17    1
