@<TRIPOS>MOLECULE
tmp/2e99B01.pdb
 106 103 0 0 0
SMALL
GASTEIGER

@<TRIPOS>ATOM
      1  N         -0.0440   25.0210   31.3040 N.3    23  ARG23      -0.1231
      2  CA         1.1720   25.7880   31.0210 C.3    23  ARG23       0.1694
      3  C          0.9590   27.0830   30.2210 C.2    23  ARG23       0.2591
      4  O          1.5160   28.1390   30.5580 O.2    23  ARG23      -0.2718
      5  CB         2.1570   24.8720   30.3110 C.3    23  ARG23       0.0321
      6  CG         3.5290   25.4860   30.1150 C.3    23  ARG23       0.0489
      7  CD         4.5200   24.3970   29.7830 C.3    23  ARG23       0.2205
      8  NE         4.4650   23.9670   28.3840 N.pl3  23  ARG23      -0.0865
      9  CZ         5.2020   22.9600   27.9010 C.cat  23  ARG23       0.5346
     10  NH1        6.0230   22.2940   28.7110 N.pl3  23  ARG23       0.1354
     11  NH2        5.1520   22.6380   26.6110 N.pl3  23  ARG23       0.1354
     12  N          0.1460   27.0030   29.1750 N.am   24  ALA24      -0.1980
     13  CA        -0.1570   28.1480   28.3270 C.3    24  ALA24       0.1597
     14  C         -0.7340   29.3120   29.1190 C.2    24  ALA24       0.2287
     15  O         -0.5310   30.4870   28.7480 O.2    24  ALA24      -0.2864
     16  CB        -1.1270   27.7330   27.2070 C.3    24  ALA24       0.0319
     17  N          2.1020   31.0980   30.7480 N.3    27  HIS27      -0.1241
     18  CA         2.8340   31.8410   29.7260 C.3    27  HIS27       0.1621
     19  C          2.1300   33.1760   29.5010 C.2    27  HIS27       0.2264
     20  O          2.7480   34.2430   29.4830 O.2    27  HIS27      -0.2867
     21  CB         2.9250   30.9960   28.4340 C.3    27  HIS27       0.0745
     22  CG         3.8920   29.8610   28.5490 C.ar   27  HIS27       0.0817
     23  ND1        3.8820   28.7600   27.7130 N.ar   27  HIS27      -0.2268
     24  CD2        4.9040   29.6610   29.4210 C.ar   27  HIS27       0.1154
     25  CE1        4.8500   27.9320   28.0730 C.ar   27  HIS27       0.1986
     26  NE2        5.4850   28.4600   29.1050 N.ar   27  HIS27      -0.2212
     27  N         14.3270   34.6580   30.2540 N.3    53  ALA53      -0.1231
     28  CA        13.2500   33.6880   30.5310 C.3    53  ALA53       0.1694
     29  C         13.9140   32.3690   30.9640 C.2    53  ALA53       0.2592
     30  O         14.5880   31.6900   30.1560 O.2    53  ALA53      -0.2718
     31  CB        12.4040   33.4640   29.2380 C.3    53  ALA53       0.0304
     32  N         13.7940   32.0110   32.2400 N.am   54  PHE54      -0.1962
     33  CA        14.4060   30.7570   32.6560 C.3    54  PHE54       0.1771
     34  C         13.4720   29.5620   32.4560 C.2    54  PHE54       0.2620
     35  O         12.3150   29.5620   32.9200 O.2    54  PHE54      -0.2715
     36  CB        14.8140   30.7670   34.1200 C.3    54  PHE54       0.0574
     37  CG        15.3420   29.4350   34.6120 C.ar   54  PHE54      -0.0200
     38  CD1       16.7010   29.1310   34.5290 C.ar   54  PHE54      -0.0042
     39  CD2       14.4660   28.4870   35.1680 C.ar   54  PHE54      -0.0042
     40  CE1       17.2040   27.9260   34.9820 C.ar   54  PHE54      -0.0003
     41  CE2       14.9450   27.2670   35.6390 C.ar   54  PHE54      -0.0003
     42  CZ        16.3450   26.9820   35.5430 C.ar   54  PHE54      -0.0000
     43  N         13.9970   28.5450   31.7810 N.am   55  SER55      -0.1950
     44  CA        13.2530   27.3120   31.5810 C.3    55  SER55       0.1924
     45  C         14.1480   26.1150   31.9010 C.2    55  SER55       0.2314
     46  O         15.3170   26.0660   31.5130 O.2    55  SER55      -0.2863
     47  CB        12.7260   27.2070   30.1310 C.3    55  SER55       0.2116
     48  OG        11.8160   26.1110   30.0020 O.3    55  SER55      -0.2180
     49  N          7.3810   26.6040   17.2570 N.3    58  ALA58      -0.1231
     50  CA         6.1080   27.1980   17.6420 C.3    58  ALA58       0.1694
     51  C          6.4510   28.4640   18.4410 C.2    58  ALA58       0.2591
     52  O          5.7590   29.4890   18.3440 O.2    58  ALA58      -0.2718
     53  CB         5.3120   26.2310   18.4930 C.3    58  ALA58       0.0304
     54  N          7.5270   28.3750   19.2290 N.am   59  LEU59      -0.1980
     55  CA         8.0020   29.5070   20.0140 C.3    59  LEU59       0.1596
     56  C          8.6900   30.4840   19.0460 C.2    59  LEU59       0.2287
     57  O          8.7740   31.6820   19.3270 O.2    59  LEU59      -0.2864
     58  CB         9.0030   29.0460   21.0760 C.3    59  LEU59       0.0297
     59  CG         9.0270   29.8690   22.3780 C.3    59  LEU59       0.0022
     60  CD1       10.2280   29.4180   23.2180 C.3    59  LEU59       0.0001
     61  CD2        9.0850   31.3840   22.0940 C.3    59  LEU59       0.0001
     62  N          5.9530   32.4300   17.4650 N.3    62  LEU62      -0.1231
     63  CA         5.4270   33.2920   18.5020 C.3    62  LEU62       0.1693
     64  C          6.3790   34.4760   18.6380 C.2    62  LEU62       0.2592
     65  O          5.9440   35.6210   18.8080 O.2    62  LEU62      -0.2718
     66  CB         5.3410   32.5230   19.8230 C.3    62  LEU62       0.0284
     67  CG         4.1450   32.8190   20.7420 C.3    62  LEU62       0.0019
     68  CD1        2.8550   32.9080   19.9250 C.3    62  LEU62       0.0001
     69  CD2        4.0350   31.6840   21.7990 C.3    62  LEU62       0.0001
     70  N          7.6690   34.1790   18.5380 N.am   63  PHE63      -0.1976
     71  CA         8.7020   35.1990   18.6440 C.3    63  PHE63       0.1639
     72  C          8.4220   36.2480   17.5270 C.2    63  PHE63       0.2290
     73  O          8.3800   37.4530   17.7780 O.2    63  PHE63      -0.2864
     74  CB        10.0750   34.5220   18.4820 C.3    63  PHE63       0.0560
     75  CG        11.2440   35.3380   19.0080 C.ar   63  PHE63      -0.0200
     76  CD1       11.1230   36.7160   19.2360 C.ar   63  PHE63      -0.0042
     77  CD2       12.4980   34.7360   19.1890 C.ar   63  PHE63      -0.0042
     78  CE1       12.2380   37.4960   19.6320 C.ar   63  PHE63      -0.0003
     79  CE2       13.6280   35.5090   19.5840 C.ar   63  PHE63      -0.0003
     80  CZ        13.4880   36.8900   19.8010 C.ar   63  PHE63      -0.0000
     81  N         16.3940   41.6160   25.4000 N.3   115  ILE115     -0.1231
     82  CA        15.6690   40.3550   25.6040 C.3   115  ILE115      0.1692
     83  C         16.6630   39.2290   25.3250 C.2   115  ILE115      0.2592
     84  O         17.2420   39.1860   24.2490 O.2   115  ILE115     -0.2718
     85  CB        14.5300   40.1660   24.5980 C.3   115  ILE115      0.0266
     86  CG1       13.5060   41.2880   24.6860 C.3   115  ILE115      0.0019
     87  CG2       13.8390   38.8510   24.9060 C.3   115  ILE115      0.0020
     88  CD1       13.0600   41.5570   26.1210 C.3   115  ILE115      0.0001
     89  N         16.8720   38.3250   26.2710 N.am  116  ALA116     -0.1966
     90  CA        17.8220   37.2230   26.0050 C.3   116  ALA116      0.1728
     91  C         17.1280   36.1620   25.1560 C.2   116  ALA116      0.2616
     92  O         15.9750   35.7880   25.4250 O.2   116  ALA116     -0.2715
     93  CB        18.2870   36.5860   27.3100 C.3   116  ALA116      0.0334
     94  N         17.7450   35.6940   24.0870 N.am  117  ALA117     -0.1963
     95  CA        17.0780   34.6110   23.4030 C.3   117  ALA117      0.1728
     96  C         18.2480   33.6450   23.1060 C.2   117  ALA117      0.2616
     97  O         19.1900   34.0170   22.4490 O.2   117  ALA117     -0.2715
     98  CB        16.3900   35.1090   22.0930 C.3   117  ALA117      0.0334
     99  N         18.1810   32.4270   23.6200 N.am  118  ASN118     -0.1972
    100  CA        19.2510   31.4550   23.4250 C.3   118  ASN118      0.1688
    101  C         20.5410   32.1420   23.8480 C.2   118  ASN118      0.2292
    102  O         21.5480   32.1400   23.1300 O.2   118  ASN118     -0.2864
    103  CB        19.3580   30.9940   21.9620 C.3   118  ASN118      0.1181
    104  CG        20.2480   29.7590   21.8230 C.2   118  ASN118      0.2629
    105  OD1       20.3270   28.9340   22.7520 O.2   118  ASN118     -0.2716
    106  ND2       20.9060   29.6190   20.6870 N.am  118  ASN118     -0.0877
@<TRIPOS>BOND
     1    49    50    1
     2    62    63    1
     3    72    73    2
     4    72    71    1
     5    50    51    1
     6    50    53    1
     7    52    51    2
     8    51    54   am
     9    74    71    1
    10    74    75    1
    11    63    64    1
    12    63    66    1
    13    70    64   am
    14    70    71    1
    15    64    65    2
    16    75    77   ar
    17    75    76   ar
    18    56    57    2
    19    56    55    1
    20    77    79   ar
    21    54    55    1
    22    76    78   ar
    23    79    80   ar
    24    78    80   ar
    25    66    67    1
    26    68    67    1
    27    55    58    1
    28   106   104   am
    29    67    69    1
    30    58    59    1
    31   104   103    1
    32   104   105    2
    33   103   100    1
    34    98    95    1
    35    61    59    1
    36    59    60    1
    37    97    96    2
    38    96    95    1
    39    96    99   am
    40   102   101    2
    41    95    94    1
    42   100    99    1
    43   100   101    1
    44    94    91   am
    45    84    83    2
    46    85    86    1
    47    85    87    1
    48    85    82    1
    49    86    88    1
    50    91    92    2
    51    91    90    1
    52    83    82    1
    53    83    89   am
    54    81    82    1
    55    90    89    1
    56    90    93    1
    57    11     9    1
    58    16    13    1
    59    23    25   ar
    60    23    22   ar
    61     9     8    2
    62     9    10    1
    63    25    26   ar
    64    13    14    1
    65    13    12    1
    66     8     7    1
    67    21    22    1
    68    21    18    1
    69    22    24   ar
    70    15    14    2
    71    26    24   ar
    72    12     3   am
    73    31    28    1
    74    20    19    2
    75    19    18    1
    76    18    17    1
    77     7     6    1
    78    48    47    1
    79     6     5    1
    80    47    44    1
    81    30    29    2
    82     3     4    2
    83     3     2    1
    84    27    28    1
    85     5     2    1
    86    28    29    1
    87    29    32   am
    88     2     1    1
    89    46    45    2
    90    44    43    1
    91    44    45    1
    92    43    34   am
    93    32    33    1
    94    34    33    1
    95    34    35    2
    96    33    36    1
    97    36    37    1
    98    38    37   ar
    99    38    40   ar
   100    37    39   ar
   101    40    42   ar
   102    39    41   ar
   103    42    41   ar
