@<TRIPOS>MOLECULE
tmp/2e9aA00.pdb
 166 161 0 0 0
SMALL
GASTEIGER

@<TRIPOS>ATOM
      1  N         34.4930   35.7430   52.6100 N.3    12  MET12      -0.1230
      2  CA        34.5750   36.0640   54.0450 C.3    12  MET12       0.1702
      3  C         34.5810   37.5830   54.2390 C.2    12  MET12       0.2592
      4  O         35.4830   38.3000   53.7390 O.2    12  MET12      -0.2718
      5  CB        35.8570   35.4770   54.6520 C.3    12  MET12       0.0401
      6  CG        36.0090   33.9440   54.4300 C.3    12  MET12       0.0596
      7  SD        37.6870   33.4310   54.9330 S.3    12  MET12      -0.1393
      8  CE        38.6220   34.1310   53.6270 C.3    12  MET12       0.0692
      9  N         33.5840   38.0800   54.9510 N.am   13  ASP13      -0.1960
     10  CA        33.4730   39.5150   55.1630 C.3    13  ASP13       0.1840
     11  C         32.8710   39.8320   56.5300 C.2    13  ASP13       0.2623
     12  O         32.1230   39.0180   57.0850 O.2    13  ASP13      -0.2715
     13  CB        32.5980   40.0950   54.0630 C.3    13  ASP13       0.1450
     14  CG        32.4590   41.6080   54.1430 C.2    13  ASP13       0.3671
     15  OD1       33.3190   42.2660   54.7990 O.co2  13  ASP13      -0.2456
     16  OD2       31.4910   42.1390   53.5210 O.co2  13  ASP13      -0.2456
     17  N         33.2190   41.0030   57.0690 N.am   14  GLY14      -0.1940
     18  CA        32.6580   41.4390   58.3440 C.3    14  GLY14       0.2014
     19  C         33.5480   41.4520   59.5860 C.2    14  GLY14       0.2639
     20  O         33.0750   41.8280   60.6750 O.2    14  GLY14      -0.2714
     21  N         34.8130   41.0430   59.4520 N.am   15  ASN15      -0.1958
     22  CA        35.7250   40.9980   60.6100 C.3    15  ASN15       0.1819
     23  C         35.8690   42.3840   61.2550 C.2    15  ASN15       0.2622
     24  O         35.9130   42.5200   62.4670 O.2    15  ASN15      -0.2715
     25  CB        37.1260   40.6050   60.1860 C.3    15  ASN15       0.1195
     26  CG        37.2230   39.2060   59.7160 C.2    15  ASN15       0.2630
     27  OD1       36.6790   38.2740   60.3200 O.2    15  ASN15      -0.2716
     28  ND2       37.9750   39.0260   58.6530 N.am   15  ASN15      -0.0877
     29  N         35.9900   43.3940   60.4090 N.am   16  GLY16      -0.1940
     30  CA        36.1430   44.7610   60.9010 C.3    16  GLY16       0.2014
     31  C         34.8970   45.2500   61.6220 C.2    16  GLY16       0.2638
     32  O         34.9870   45.8040   62.7110 O.2    16  GLY16      -0.2714
     33  N         33.7260   45.0100   61.0350 N.am   17  ARG17      -0.1977
     34  CA        32.4900   45.4530   61.6470 C.3    17  ARG17       0.1597
     35  C         32.3720   44.7620   62.9940 C.2    17  ARG17       0.2287
     36  O         31.9760   45.3760   64.0280 O.2    17  ARG17      -0.2864
     37  CB        31.3110   45.0630   60.7700 C.3    17  ARG17       0.0334
     38  CG        30.2950   46.1710   60.5420 C.3    17  ARG17       0.0492
     39  CD        29.2610   45.7250   59.5220 C.3    17  ARG17       0.2205
     40  NE        29.9050   44.9890   58.4280 N.pl3  17  ARG17      -0.0865
     41  CZ        29.2680   44.1340   57.6380 C.cat  17  ARG17       0.5346
     42  NH1       27.9700   43.9270   57.8350 N.pl3  17  ARG17       0.1354
     43  NH2       29.9190   43.4800   56.6790 N.pl3  17  ARG17       0.1354
     44  N         40.9230   46.5850   64.4660 N.3    26  ARG26      -0.1245
     45  CA        41.0260   45.6500   63.3520 C.3    26  ARG26       0.1563
     46  C         41.9010   44.4290   63.6350 C.2    26  ARG26       0.2260
     47  O         41.6200   43.3380   63.1570 O.2    26  ARG26      -0.2867
     48  CB        41.5380   46.3870   62.0970 C.3    26  ARG26       0.0307
     49  CG        40.6790   47.6190   61.6810 C.3    26  ARG26       0.0489
     50  CD        39.6660   47.3490   60.5350 C.3    26  ARG26       0.2205
     51  NE        40.2520   47.4150   59.1880 N.pl3  26  ARG26      -0.0865
     52  CZ        40.6610   48.5360   58.5890 C.cat  26  ARG26       0.5346
     53  NH1       40.5450   49.7030   59.2160 N.pl3  26  ARG26       0.1354
     54  NH2       41.1990   48.4980   57.3690 N.pl3  26  ARG26       0.1354
     55  N         41.0330   40.4730   63.0800 N.3    30  HIS30      -0.1241
     56  CA        41.8400   39.5760   62.2880 C.3    30  HIS30       0.1621
     57  C         42.1220   38.3110   63.0780 C.2    30  HIS30       0.2264
     58  O         42.0970   37.2320   62.5240 O.2    30  HIS30      -0.2867
     59  CB        43.1400   40.2530   61.8640 C.3    30  HIS30       0.0745
     60  CG        42.9550   41.2600   60.7740 C.ar   30  HIS30       0.0817
     61  ND1       43.9340   42.1630   60.4140 N.ar   30  HIS30      -0.2268
     62  CD2       41.8890   41.5260   59.9810 C.ar   30  HIS30       0.1154
     63  CE1       43.4790   42.9410   59.4450 C.ar   30  HIS30       0.1986
     64  NE2       42.2390   42.5770   59.1640 N.ar   30  HIS30      -0.2212
     65  N         38.9770   36.4360   62.8540 N.3    33  GLY33      -0.1210
     66  CA        38.7550   35.9510   61.4930 C.3    33  GLY33       0.1956
     67  C         39.5690   34.7180   61.1510 C.2    33  GLY33       0.2611
     68  O         39.0880   33.8000   60.4980 O.2    33  GLY33      -0.2717
     69  N         40.8190   34.6790   61.6030 N.am   34  ALA34      -0.1979
     70  CA        41.7050   33.5180   61.3530 C.3    34  ALA34       0.1597
     71  C         41.1340   32.3130   62.1100 C.2    34  ALA34       0.2287
     72  O         41.0950   31.1680   61.6190 O.2    34  ALA34      -0.2864
     73  CB        43.1360   33.8410   61.8620 C.3    34  ALA34       0.0319
     74  N         38.4890   31.0350   60.1610 N.3    37  VAL37      -0.1231
     75  CA        38.9860   30.2980   58.9890 C.3    37  VAL37       0.1692
     76  C         39.3860   28.8750   59.4510 C.2    37  VAL37       0.2591
     77  O         38.9530   27.8910   58.8630 O.2    37  VAL37      -0.2718
     78  CB        40.2190   31.0270   58.3120 C.3    37  VAL37       0.0266
     79  CG1       41.0030   30.0710   57.3170 C.3    37  VAL37       0.0020
     80  CG2       39.7100   32.2390   57.5100 C.3    37  VAL37       0.0020
     81  N         40.1720   28.7540   60.5180 N.am   38  ARG38      -0.1980
     82  CA        40.5700   27.4270   60.9820 C.3    38  ARG38       0.1597
     83  C         39.3360   26.5310   61.2380 C.2    38  ARG38       0.2287
     84  O         39.2980   25.3490   60.8610 O.2    38  ARG38      -0.2864
     85  CB        41.3830   27.5220   62.2780 C.3    38  ARG38       0.0334
     86  CG        42.8240   28.0540   62.1970 C.3    38  ARG38       0.0492
     87  CD        43.2220   28.4660   63.6560 C.3    38  ARG38       0.2205
     88  NE        44.6280   28.7960   63.8890 N.pl3  38  ARG38      -0.0865
     89  CZ        45.1940   30.0010   63.7500 C.cat  38  ARG38       0.5346
     90  NH1       44.4850   31.0530   63.3700 N.pl3  38  ARG38       0.1354
     91  NH2       46.4980   30.1450   63.9860 N.pl3  38  ARG38       0.1354
     92  N         38.9330   36.5790   50.9660 N.3    56  ALA56      -0.1231
     93  CA        38.7670   37.5880   52.0240 C.3    56  ALA56       0.1694
     94  C         38.3610   38.8930   51.3480 C.2    56  ALA56       0.2592
     95  O         39.0360   39.4050   50.4690 O.2    56  ALA56      -0.2718
     96  CB        40.0490   37.7860   52.8130 C.3    56  ALA56       0.0304
     97  N         37.2180   39.4170   51.7090 N.am   57  PHE57      -0.1962
     98  CA        36.8140   40.6680   51.0840 C.3    57  PHE57       0.1771
     99  C         37.2590   41.8060   51.9810 C.2    57  PHE57       0.2620
    100  O         37.0480   41.7370   53.2100 O.2    57  PHE57      -0.2715
    101  CB        35.3070   40.7060   50.9320 C.3    57  PHE57       0.0574
    102  CG        34.7950   41.9920   50.3770 C.ar   57  PHE57      -0.0200
    103  CD1       34.8240   42.2350   49.0210 C.ar   57  PHE57      -0.0042
    104  CD2       34.2800   42.9730   51.2270 C.ar   57  PHE57      -0.0042
    105  CE1       34.3480   43.4370   48.5160 C.ar   57  PHE57      -0.0003
    106  CE2       33.7950   44.1800   50.7150 C.ar   57  PHE57      -0.0003
    107  CZ        33.8310   44.4070   49.3620 C.ar   57  PHE57      -0.0000
    108  N         37.8620   42.8460   51.3920 N.am   58  SER58      -0.1936
    109  CA        38.3050   43.9690   52.2010 C.3    58  SER58       0.2055
    110  C         37.4760   45.2470   52.1180 C.2    58  SER58       0.2643
    111  O         37.1960   45.7940   51.0460 O.2    58  SER58      -0.2714
    112  CB        39.7550   44.3100   51.9220 C.3    58  SER58       0.2130
    113  OG        40.2380   45.1110   52.9820 O.3    58  SER58      -0.2179
    114  N         37.0880   45.7080   53.2970 N.am   59  SER59      -0.1949
    115  CA        36.2880   46.9040   53.4570 C.3    59  SER59       0.1924
    116  C         37.0560   48.1670   53.0560 C.2    59  SER59       0.2314
    117  O         36.6610   48.8150   52.0620 O.2    59  SER59      -0.2863
    118  CB        35.8340   46.9710   54.9180 C.3    59  SER59       0.2116
    119  OG        36.7810   46.3300   55.7700 O.3    59  SER59      -0.2180
    120  N         49.0590   39.0760   54.1100 N.3    67  PHE67      -0.1241
    121  CA        48.0370   38.0450   54.0180 C.3    67  PHE67       0.1605
    122  C         48.6140   36.6790   53.6620 C.2    67  PHE67       0.2264
    123  O         48.4800   35.7260   54.4210 O.2    67  PHE67      -0.2867
    124  CB        46.9860   38.4500   52.9760 C.3    67  PHE67       0.0534
    125  CG        45.7520   37.5880   52.9910 C.ar   67  PHE67      -0.0203
    126  CD1       44.8890   37.6080   54.0800 C.ar   67  PHE67      -0.0042
    127  CD2       45.4640   36.7380   51.9320 C.ar   67  PHE67      -0.0042
    128  CE1       43.7660   36.7940   54.1120 C.ar   67  PHE67      -0.0003
    129  CE2       44.3430   35.9250   51.9620 C.ar   67  PHE67      -0.0003
    130  CZ        43.4950   35.9540   53.0540 C.ar   67  PHE67      -0.0000
    131  N         51.3950   35.5050   56.2130 N.3    70  ALA70      -0.1231
    132  CA        50.8530   34.9430   57.4490 C.3    70  ALA70       0.1694
    133  C         50.5400   33.4640   57.2340 C.2    70  ALA70       0.2591
    134  O         50.8880   32.6010   58.0460 O.2    70  ALA70      -0.2718
    135  CB        49.5890   35.6870   57.8400 C.3    70  ALA70       0.0304
    136  N         49.8890   33.1850   56.1130 N.am   71  LEU71      -0.1980
    137  CA        49.5020   31.8360   55.7560 C.3    71  LEU71       0.1596
    138  C         50.6870   30.8680   55.7710 C.2    71  LEU71       0.2287
    139  O         50.5040   29.6580   55.6970 O.2    71  LEU71      -0.2864
    140  CB        48.8460   31.8550   54.3720 C.3    71  LEU71       0.0297
    141  CG        47.9620   30.6700   53.9650 C.3    71  LEU71       0.0022
    142  CD1       46.7560   30.5720   54.8990 C.3    71  LEU71       0.0001
    143  CD2       47.5130   30.8440   52.5240 C.3    71  LEU71       0.0001
    144  N         50.9160   28.6540   58.7970 N.3    74  GLU74      -0.1245
    145  CA        49.7870   27.7710   58.6490 C.3    74  GLU74       0.1567
    146  C         50.0460   26.5830   57.7670 C.2    74  GLU74       0.2260
    147  O         49.3860   25.5670   57.9130 O.2    74  GLU74      -0.2867
    148  CB        48.5800   28.5440   58.1110 C.3    74  GLU74       0.0388
    149  CG        48.0510   29.5990   59.0640 C.3    74  GLU74       0.1160
    150  CD        47.5920   29.0030   60.3740 C.2    74  GLU74       0.3649
    151  OE1       47.2560   29.7560   61.3160 O.co2  74  GLU74      -0.2457
    152  OE2       47.5640   27.7660   60.4630 O.co2  74  GLU74      -0.2457
    153  N         31.9170   37.2840   59.5420 N.3   199  TRP199     -0.1241
    154  CA        32.8550   36.1520   59.4910 C.3   199  TRP199      0.1605
    155  C         33.3380   35.5670   60.8580 C.2   199  TRP199      0.2264
    156  O         33.3100   34.3430   61.0440 O.2   199  TRP199     -0.2867
    157  CB        34.0380   36.4930   58.5480 C.3   199  TRP199      0.0550
    158  CG        34.9550   35.3220   58.3220 C.ar  199  TRP199      0.0003
    159  CD1       36.2720   35.2140   58.7140 C.ar  199  TRP199      0.0946
    160  CD2       34.5790   34.0470   57.8080 C.ar  199  TRP199      0.0152
    161  NE1       36.7280   33.9520   58.4830 N.ar  199  TRP199     -0.2442
    162  CE2       35.7090   33.2060   57.9280 C.ar  199  TRP199      0.0810
    163  CE3       33.3810   33.5270   57.2620 C.ar  199  TRP199      0.0012
    164  CZ2       35.6940   31.8430   57.5300 C.ar  199  TRP199      0.0191
    165  CZ3       33.3550   32.1580   56.8570 C.ar  199  TRP199      0.0001
    166  CH2       34.5150   31.3360   57.0020 C.ar  199  TRP199      0.0015
@<TRIPOS>BOND
     1   105   103   ar
     2   105   107   ar
     3   103   102   ar
     4   107   106   ar
     5   102   101    1
     6   102   104   ar
     7    95    94    2
     8   106   104   ar
     9   101    98    1
    10    92    93    1
    11   111   110    2
    12    98    97    1
    13    98    99    1
    14    94    97   am
    15    94    93    1
    16   108    99   am
    17   108   109    1
    18   112   109    1
    19   112   113    1
    20   127   129   ar
    21   127   125   ar
    22   129   130   ar
    23    99   100    2
    24    93    96    1
    25   117   116    2
    26   110   109    1
    27   110   114   am
    28   143   141    1
    29     1     2    1
    30   124   125    1
    31   124   121    1
    32   125   126   ar
    33   130   128   ar
    34   116   115    1
    35   114   115    1
    36   115   118    1
    37    16    14   ar
    38     8     7    1
    39   122   121    1
    40   122   123    2
    41     4     3    2
    42   141   140    1
    43   141   142    1
    44   121   120    1
    45     2     3    1
    46     2     5    1
    47    13    14    1
    48    13    10    1
    49   126   128   ar
    50    14    15   ar
    51     3     9   am
    52   140   137    1
    53     6     5    1
    54     6     7    1
    55   118   119    1
    56     9    10    1
    57    10    11    1
    58   139   138    2
    59   137   138    1
    60   137   136    1
    61   136   133   am
    62   131   132    1
    63    11    17   am
    64    11    12    2
    65    43    41    1
    66   165   166   ar
    67   165   163   ar
    68   166   164   ar
    69    17    18    1
    70   133   132    1
    71   133   134    2
    72   163   160   ar
    73    79    78    1
    74    54    52    1
    75   132   135    1
    76    80    78    1
    77   164   162   ar
    78    41    42    1
    79    41    40    2
    80   146   147    2
    81   146   145    1
    82   160   162   ar
    83   160   158   ar
    84   162   161   ar
    85   148   145    1
    86   148   149    1
    87    78    75    1
    88   158   157    1
    89   158   159   ar
    90    18    19    1
    91    40    39    1
    92   161   159   ar
    93   157   154    1
    94    52    51    2
    95    52    53    1
    96   145   144    1
    97    28    26   am
    98    77    76    2
    99    75    76    1
   100    75    74    1
   101   149   150    1
   102    64    63   ar
   103    64    62   ar
   104    51    50    1
   105    63    61   ar
   106    76    81   am
   107    21    19   am
   108    21    22    1
   109   154   153    1
   110   154   155    1
   111    39    38    1
   112    19    20    2
   113    26    25    1
   114    26    27    2
   115    62    60   ar
   116    25    22    1
   117   150   152   ar
   118   150   151   ar
   119    29    30    1
   120    29    23   am
   121    61    60   ar
   122    68    67    2
   123    81    82    1
   124    50    49    1
   125    38    37    1
   126    22    23    1
   127    37    34    1
   128    60    59    1
   129   155   156    2
   130    84    83    2
   131    30    31    1
   132    82    83    1
   133    82    85    1
   134    33    31   am
   135    33    34    1
   136    67    66    1
   137    67    69   am
   138    23    24    2
   139    70    69    1
   140    70    73    1
   141    70    71    1
   142    66    65    1
   143    72    71    2
   144    31    32    2
   145    34    35    1
   146    49    48    1
   147    59    56    1
   148    48    45    1
   149    86    85    1
   150    86    87    1
   151    56    57    1
   152    56    55    1
   153    58    57    2
   154    35    36    2
   155    47    46    2
   156    45    46    1
   157    45    44    1
   158    90    89    1
   159    87    88    1
   160    89    88    2
   161    89    91    1
