@<TRIPOS>MOLECULE
tmp/2e9aA01.pdb
 95 91 0 0 0
SMALL
GASTEIGER

@<TRIPOS>ATOM
      1  N         40.9230   46.5850   64.4660 N.3    26  ARG26      -0.1231
      2  CA        41.0260   45.6500   63.3520 C.3    26  ARG26       0.1694
      3  C         41.9010   44.4290   63.6350 C.2    26  ARG26       0.2591
      4  O         41.6200   43.3380   63.1570 O.2    26  ARG26      -0.2718
      5  CB        41.5380   46.3870   62.0970 C.3    26  ARG26       0.0321
      6  CG        40.6790   47.6190   61.6810 C.3    26  ARG26       0.0489
      7  CD        39.6660   47.3490   60.5350 C.3    26  ARG26       0.2205
      8  NE        40.2520   47.4150   59.1880 N.pl3  26  ARG26      -0.0865
      9  CZ        40.6610   48.5360   58.5890 C.cat  26  ARG26       0.5346
     10  NH1       40.5450   49.7030   59.2160 N.pl3  26  ARG26       0.1354
     11  NH2       41.1990   48.4980   57.3690 N.pl3  26  ARG26       0.1354
     12  N         42.9590   44.5990   64.4130 N.am   27  ALA27      -0.1980
     13  CA        43.8200   43.4680   64.7300 C.3    27  ALA27       0.1597
     14  C         43.0310   42.3480   65.4240 C.2    27  ALA27       0.2287
     15  O         43.2620   41.1560   65.1700 O.2    27  ALA27      -0.2864
     16  CB        44.9800   43.9160   65.6380 C.3    27  ALA27       0.0319
     17  N         41.0330   40.4730   63.0800 N.3    30  HIS30      -0.1241
     18  CA        41.8400   39.5760   62.2880 C.3    30  HIS30       0.1621
     19  C         42.1220   38.3110   63.0780 C.2    30  HIS30       0.2264
     20  O         42.0970   37.2320   62.5240 O.2    30  HIS30      -0.2867
     21  CB        43.1400   40.2530   61.8640 C.3    30  HIS30       0.0745
     22  CG        42.9550   41.2600   60.7740 C.ar   30  HIS30       0.0817
     23  ND1       43.9340   42.1630   60.4140 N.ar   30  HIS30      -0.2268
     24  CD2       41.8890   41.5260   59.9810 C.ar   30  HIS30       0.1154
     25  CE1       43.4790   42.9410   59.4450 C.ar   30  HIS30       0.1986
     26  NE2       42.2390   42.5770   59.1640 N.ar   30  HIS30      -0.2212
     27  N         38.9330   36.5790   50.9660 N.3    56  ALA56      -0.1231
     28  CA        38.7670   37.5880   52.0240 C.3    56  ALA56       0.1694
     29  C         38.3610   38.8930   51.3480 C.2    56  ALA56       0.2592
     30  O         39.0360   39.4050   50.4690 O.2    56  ALA56      -0.2718
     31  CB        40.0490   37.7860   52.8130 C.3    56  ALA56       0.0304
     32  N         37.2180   39.4170   51.7090 N.am   57  PHE57      -0.1962
     33  CA        36.8140   40.6680   51.0840 C.3    57  PHE57       0.1771
     34  C         37.2590   41.8060   51.9810 C.2    57  PHE57       0.2620
     35  O         37.0480   41.7370   53.2100 O.2    57  PHE57      -0.2715
     36  CB        35.3070   40.7060   50.9320 C.3    57  PHE57       0.0574
     37  CG        34.7950   41.9920   50.3770 C.ar   57  PHE57      -0.0200
     38  CD1       34.8240   42.2350   49.0210 C.ar   57  PHE57      -0.0042
     39  CD2       34.2800   42.9730   51.2270 C.ar   57  PHE57      -0.0042
     40  CE1       34.3480   43.4370   48.5160 C.ar   57  PHE57      -0.0003
     41  CE2       33.7950   44.1800   50.7150 C.ar   57  PHE57      -0.0003
     42  CZ        33.8310   44.4070   49.3620 C.ar   57  PHE57      -0.0000
     43  N         37.8620   42.8460   51.3920 N.am   58  SER58      -0.1950
     44  CA        38.3050   43.9690   52.2010 C.3    58  SER58       0.1924
     45  C         37.4760   45.2470   52.1180 C.2    58  SER58       0.2314
     46  O         37.1960   45.7940   51.0460 O.2    58  SER58      -0.2863
     47  CB        39.7550   44.3100   51.9220 C.3    58  SER58       0.2116
     48  OG        40.2380   45.1110   52.9820 O.3    58  SER58      -0.2180
     49  N         48.1630   47.8590   48.8070 N.3    60  VAL60      -0.1245
     50  CA        47.3280   46.7580   48.2530 C.3    60  VAL60       0.1561
     51  C         48.2340   45.6150   47.8500 C.2    60  VAL60       0.2260
     52  O         47.9130   44.4450   48.0530 O.2    60  VAL60      -0.2867
     53  CB        46.5530   47.2040   47.0000 C.3    60  VAL60       0.0252
     54  CG1       45.6550   46.0730   46.5240 C.3    60  VAL60       0.0019
     55  CG2       45.7370   48.4530   47.3000 C.3    60  VAL60       0.0019
     56  N         49.5830   44.4930   51.2160 N.3    63  LEU63      -0.1231
     57  CA        48.5710   43.7790   51.9740 C.3    63  LEU63       0.1693
     58  C         48.5170   42.3260   51.5320 C.2    63  LEU63       0.2591
     59  O         48.6160   41.4220   52.3610 O.2    63  LEU63      -0.2718
     60  CB        47.2070   44.4490   51.8070 C.3    63  LEU63       0.0284
     61  CG        47.0530   45.7210   52.6490 C.3    63  LEU63       0.0019
     62  CD1       45.7020   46.3550   52.4010 C.3    63  LEU63       0.0001
     63  CD2       47.2130   45.3740   54.1290 C.3    63  LEU63       0.0001
     64  N         48.3890   42.0990   50.2270 N.am   64  MET64      -0.1979
     65  CA        48.3330   40.7360   49.7180 C.3    64  MET64       0.1605
     66  C         49.6500   39.9920   49.9210 C.2    64  MET64       0.2287
     67  O         49.7940   38.8590   49.4780 O.2    64  MET64      -0.2864
     68  CB        47.9130   40.7230   48.2440 C.3    64  MET64       0.0413
     69  CG        46.3940   40.8860   48.0190 C.3    64  MET64       0.0598
     70  SD        45.3790   39.4790   48.6110 S.3    64  MET64      -0.1393
     71  CE        43.7490   40.0020   48.2330 C.3    64  MET64       0.0692
     72  N         51.4170   40.4400   53.2380 N.3    66  LEU66      -0.1231
     73  CA        51.1600   40.0970   54.6290 C.3    66  LEU66       0.1693
     74  C         50.2650   38.8770   54.6370 C.2    66  LEU66       0.2592
     75  O         50.6550   37.8010   55.0910 O.2    66  LEU66      -0.2718
     76  CB        50.4310   41.2390   55.3430 C.3    66  LEU66       0.0284
     77  CG        51.1990   42.4610   55.8480 C.3    66  LEU66       0.0019
     78  CD1       50.2210   43.4710   56.4340 C.3    66  LEU66       0.0001
     79  CD2       52.2060   42.0320   56.9070 C.3    66  LEU66       0.0001
     80  N         49.0590   39.0760   54.1100 N.am   67  PHE67      -0.1976
     81  CA        48.0370   38.0450   54.0180 C.3    67  PHE67       0.1639
     82  C         48.6140   36.6790   53.6620 C.2    67  PHE67       0.2290
     83  O         48.4800   35.7260   54.4210 O.2    67  PHE67      -0.2864
     84  CB        46.9860   38.4500   52.9760 C.3    67  PHE67       0.0560
     85  CG        45.7520   37.5880   52.9910 C.ar   67  PHE67      -0.0200
     86  CD1       44.8890   37.6080   54.0800 C.ar   67  PHE67      -0.0042
     87  CD2       45.4640   36.7380   51.9320 C.ar   67  PHE67      -0.0042
     88  CE1       43.7660   36.7940   54.1120 C.ar   67  PHE67      -0.0003
     89  CE2       44.3430   35.9250   51.9620 C.ar   67  PHE67      -0.0003
     90  CZ        43.4950   35.9540   53.0540 C.ar   67  PHE67      -0.0000
     91  N         51.3950   35.5050   56.2130 N.3    70  ALA70      -0.1245
     92  CA        50.8530   34.9430   57.4490 C.3    70  ALA70       0.1562
     93  C         50.5400   33.4640   57.2340 C.2    70  ALA70       0.2260
     94  O         50.8880   32.6010   58.0460 O.2    70  ALA70      -0.2867
     95  CB        49.5890   35.6870   57.8400 C.3    70  ALA70       0.0290
@<TRIPOS>BOND
     1    54    53    1
     2    53    55    1
     3    53    50    1
     4    51    52    2
     5    51    50    1
     6    69    68    1
     7    69    70    1
     8    71    70    1
     9    68    65    1
    10    50    49    1
    11    40    38   ar
    12    40    42   ar
    13    38    37   ar
    14    42    41   ar
    15    67    66    2
    16    65    66    1
    17    65    64    1
    18    64    58   am
    19    37    36    1
    20    37    39   ar
    21    30    29    2
    22    41    39   ar
    23    36    33    1
    24    27    28    1
    25    46    45    2
    26    33    32    1
    27    33    34    1
    28    56    57    1
    29    29    32   am
    30    29    28    1
    31    43    34   am
    32    43    44    1
    33    58    57    1
    34    58    59    2
    35    60    57    1
    36    60    61    1
    37    47    44    1
    38    47    48    1
    39    87    89   ar
    40    87    85   ar
    41    89    90   ar
    42    34    35    2
    43    28    31    1
    44    45    44    1
    45    62    61    1
    46    61    63    1
    47    84    85    1
    48    84    81    1
    49    85    86   ar
    50    90    88   ar
    51    72    73    1
    52    82    81    1
    53    82    83    2
    54    81    80    1
    55    86    88   ar
    56    80    74   am
    57    73    74    1
    58    73    76    1
    59    74    75    2
    60    76    77    1
    61    77    78    1
    62    77    79    1
    63    91    92    1
    64    93    92    1
    65    93    94    2
    66    11     9    1
    67    92    95    1
    68     9     8    2
    69     9    10    1
    70    26    25   ar
    71    26    24   ar
    72     8     7    1
    73    25    23   ar
    74    24    22   ar
    75    23    22   ar
    76     7     6    1
    77    22    21    1
    78     6     5    1
    79    21    18    1
    80     5     2    1
    81    18    19    1
    82    18    17    1
    83    20    19    2
    84     4     3    2
    85     2     3    1
    86     2     1    1
    87     3    12   am
    88    12    13    1
    89    13    14    1
    90    13    16    1
    91    15    14    2
