@<TRIPOS>MOLECULE
tmp/2e9aB00.pdb
 86 84 0 0 0
SMALL
GASTEIGER

@<TRIPOS>ATOM
      1  N         13.3990   35.8360   34.9500 N.3     9  MET9       -0.1230
      2  CA        11.9710   35.6050   35.1010 C.3     9  MET9        0.1702
      3  C         11.7390   34.1180   35.2400 C.2     9  MET9        0.2592
      4  O         11.9060   33.3680   34.2600 O.2     9  MET9       -0.2718
      5  CB        11.2460   36.1200   33.8620 C.3     9  MET9        0.0401
      6  CG        11.5970   37.5690   33.5470 C.3     9  MET9        0.0596
      7  SD        10.8080   38.0960   32.0320 S.3     9  MET9       -0.1393
      8  CE        11.6400   37.0910   30.7420 C.3     9  MET9        0.0692
      9  N         11.4060   33.6600   36.4440 N.am   10  ASP10      -0.1960
     10  CA        11.1930   32.2260   36.6210 C.3    10  ASP10       0.1840
     11  C          9.9000   32.0290   37.4130 C.2    10  ASP10       0.2623
     12  O          9.5590   32.8770   38.2590 O.2    10  ASP10      -0.2715
     13  CB        12.4160   31.6620   37.3680 C.3    10  ASP10       0.1450
     14  CG        12.4450   30.1310   37.4510 C.2    10  ASP10       0.3671
     15  OD1       11.8350   29.4680   36.5840 O.co2  10  ASP10      -0.2456
     16  OD2       13.1110   29.6000   38.3860 O.co2  10  ASP10      -0.2456
     17  N          9.1830   30.9240   37.1550 N.am   11  GLY11      -0.1940
     18  CA         7.9790   30.6370   37.9190 C.3    11  GLY11       0.2014
     19  C          6.6510   30.5430   37.1820 C.2    11  GLY11       0.2639
     20  O          5.6020   30.3160   37.8110 O.2    11  GLY11      -0.2714
     21  N          6.6630   30.7320   35.8610 N.am   12  ASN12      -0.1958
     22  CA         5.4320   30.6780   35.0770 C.3    12  ASN12       0.1819
     23  C          4.6820   29.3210   35.1460 C.2    12  ASN12       0.2622
     24  O          3.4830   29.2660   35.3710 O.2    12  ASN12      -0.2715
     25  CB         5.7350   30.9500   33.6160 C.3    12  ASN12       0.1195
     26  CG         6.0570   32.4180   33.3170 C.2    12  ASN12       0.2630
     27  OD1        5.7440   33.3200   34.0740 O.2    12  ASN12      -0.2716
     28  ND2        6.6510   32.6430   32.1680 N.am   12  ASN12      -0.0877
     29  N          5.3930   28.2320   34.8910 N.am   13  GLY13      -0.1940
     30  CA         4.7650   26.9190   34.9160 C.3    13  GLY13       0.2014
     31  C          4.3340   26.5460   36.3190 C.2    13  GLY13       0.2638
     32  O          3.2010   26.1110   36.5360 O.2    13  GLY13      -0.2714
     33  N          5.2430   26.7040   37.2770 N.am   14  ARG14      -0.1977
     34  CA         4.9190   26.3950   38.6480 C.3    14  ARG14       0.1597
     35  C          3.6770   27.2080   38.9870 C.2    14  ARG14       0.2287
     36  O          2.7630   26.7200   39.6460 O.2    14  ARG14      -0.2864
     37  CB         6.0890   26.7730   39.5600 C.3    14  ARG14       0.0334
     38  CG         5.8840   26.4770   41.0140 C.3    14  ARG14       0.0492
     39  CD         7.0380   27.0070   41.8530 C.3    14  ARG14       0.2205
     40  NE         8.3280   26.4240   41.4630 N.pl3  14  ARG14      -0.0865
     41  CZ         8.9350   25.4200   42.1090 C.cat  14  ARG14       0.5346
     42  NH1        8.3790   24.8650   43.1950 N.pl3  14  ARG14       0.1354
     43  NH2       10.1070   24.9550   41.6670 N.pl3  14  ARG14       0.1354
     44  N          0.2030   24.8300   31.2640 N.3    23  ARG23      -0.1245
     45  CA         1.4160   25.6030   31.0010 C.3    23  ARG23       0.1563
     46  C          1.1440   26.8990   30.2050 C.2    23  ARG23       0.2260
     47  O          1.5820   27.9810   30.6030 O.2    23  ARG23      -0.2867
     48  CB         2.4210   24.7120   30.2540 C.3    23  ARG23       0.0307
     49  CG         3.8470   24.7420   30.8100 C.3    23  ARG23       0.0489
     50  CD         4.7650   23.7150   30.1190 C.3    23  ARG23       0.2205
     51  NE         4.8240   23.8830   28.6600 N.pl3  23  ARG23      -0.0865
     52  CZ         5.4370   23.0360   27.8300 C.cat  23  ARG23       0.5346
     53  NH1        6.0480   21.9540   28.3120 N.pl3  23  ARG23       0.1354
     54  NH2        5.4400   23.2640   26.5180 N.pl3  23  ARG23       0.1354
     55  N          2.1720   31.0390   30.6050 N.3    27  HIS27      -0.1241
     56  CA         2.8220   31.8560   29.5970 C.3    27  HIS27       0.1621
     57  C          2.0750   33.1390   29.4120 C.2    27  HIS27       0.2264
     58  O          2.6520   34.2220   29.4430 O.2    27  HIS27      -0.2867
     59  CB         2.8850   31.0920   28.3080 C.3    27  HIS27       0.0745
     60  CG         3.7320   29.8770   28.4100 C.ar   27  HIS27       0.0817
     61  ND1        3.7790   28.9130   27.4270 N.ar   27  HIS27      -0.2268
     62  CD2        4.5890   29.4760   29.3790 C.ar   27  HIS27       0.1154
     63  CE1        4.6310   27.9670   27.7870 C.ar   27  HIS27       0.1986
     64  NE2        5.1350   28.2870   28.9650 N.ar   27  HIS27      -0.2212
     65  N         14.3910   34.6990   30.1020 N.3    53  ALA53      -0.1231
     66  CA        13.3300   33.7180   30.3620 C.3    53  ALA53       0.1694
     67  C         14.0420   32.4410   30.7280 C.2    53  ALA53       0.2592
     68  O         14.7840   31.8790   29.9330 O.2    53  ALA53      -0.2718
     69  CB        12.4770   33.4840   29.1230 C.3    53  ALA53       0.0304
     70  N         13.8340   31.9950   31.9540 N.am   54  PHE54      -0.1962
     71  CA        14.4830   30.7810   32.3790 C.3    54  PHE54       0.1771
     72  C         13.6160   29.5290   32.2560 C.2    54  PHE54       0.2620
     73  O         12.4950   29.4770   32.7780 O.2    54  PHE54      -0.2715
     74  CB        14.9220   30.9080   33.8200 C.3    54  PHE54       0.0574
     75  CG        15.6520   29.7190   34.3130 C.ar   54  PHE54      -0.0200
     76  CD1       16.9290   29.4540   33.8670 C.ar   54  PHE54      -0.0042
     77  CD2       15.0490   28.8340   35.1860 C.ar   54  PHE54      -0.0042
     78  CE1       17.5970   28.3230   34.2790 C.ar   54  PHE54      -0.0003
     79  CE2       15.7250   27.6880   35.6070 C.ar   54  PHE54      -0.0003
     80  CZ        17.0040   27.4390   35.1460 C.ar   54  PHE54      -0.0000
     81  N         14.1370   28.5250   31.5590 N.am   55  SER55      -0.1950
     82  CA        13.4140   27.2730   31.4580 C.3    55  SER55       0.1924
     83  C         14.3090   26.1600   32.0090 C.2    55  SER55       0.2314
     84  O         15.5480   26.1990   31.7600 O.2    55  SER55      -0.2863
     85  CB        13.0170   26.9670   30.0110 C.3    55  SER55       0.2116
     86  OG        11.8700   26.1090   29.9750 O.3    55  SER55      -0.2180
@<TRIPOS>BOND
     1    54    52    1
     2    61    63   ar
     3    61    60   ar
     4    63    64   ar
     5    52    53    1
     6    52    51    2
     7    59    60    1
     8    59    56    1
     9    60    62   ar
    10    51    50    1
    11    64    62   ar
    12    69    66    1
    13    57    58    2
    14    57    56    1
    15    56    55    1
    16    68    67    2
    17    86    85    1
    18    85    82    1
    19    65    66    1
    20    50    49    1
    21    46    47    2
    22    46    45    1
    23    48    49    1
    24    48    45    1
    25    66    67    1
    26    67    70   am
    27     8     7    1
    28    45    44    1
    29    82    81    1
    30    82    83    1
    31    81    72   am
    32    84    83    2
    33    70    71    1
    34     7     6    1
    35    28    26   am
    36    72    71    1
    37    72    73    2
    38    71    74    1
    39    26    25    1
    40    26    27    2
    41     6     5    1
    42    25    22    1
    43    74    75    1
    44     5     2    1
    45    76    78   ar
    46    76    75   ar
    47     4     3    2
    48    78    80   ar
    49    75    77   ar
    50    29    30    1
    51    29    23   am
    52    30    31    1
    53     1     2    1
    54    22    23    1
    55    22    21    1
    56     2     3    1
    57    80    79   ar
    58    23    24    2
    59    77    79   ar
    60     3     9   am
    61    21    19   am
    62    31    32    2
    63    31    33   am
    64     9    10    1
    65    15    14   ar
    66    10    13    1
    67    10    11    1
    68    17    11   am
    69    17    18    1
    70    19    20    2
    71    19    18    1
    72    33    34    1
    73    13    14    1
    74    11    12    2
    75    14    16   ar
    76    34    35    1
    77    34    37    1
    78    35    36    2
    79    37    38    1
    80    38    39    1
    81    40    39    1
    82    40    41    2
    83    43    41    1
    84    41    42    1
