@<TRIPOS>MOLECULE
tmp/2e9bB00.pdb
 178 175 0 0 0
SMALL
GASTEIGER

@<TRIPOS>ATOM
      1  N        129.5510   84.1740  149.7490 N.3   289  ASN289     -0.1225
      2  CA       129.4720   82.8380  149.1600 C.3   289  ASN289      0.1785
      3  C        128.0480   82.2970  149.0720 C.2   289  ASN289      0.2597
      4  O        127.2460   82.4810  149.9950 O.2   289  ASN289     -0.2718
      5  CB       130.3440   81.8440  149.9280 C.3   289  ASN289      0.1169
      6  CG       130.7560   80.6600  149.0700 C.2   289  ASN289      0.2627
      7  OD1      129.9430   79.7760  148.7570 O.2   289  ASN289     -0.2716
      8  ND2      132.0250   80.6490  148.6580 N.am  289  ASN289     -0.0877
      9  N        127.7380   81.6370  147.9560 N.am  290  TRP290     -0.1976
     10  CA       126.4110   81.0430  147.7640 C.3   290  TRP290      0.1640
     11  C        126.1130   79.9930  148.8290 C.2   290  TRP290      0.2290
     12  O        124.9660   79.8530  149.2670 O.2   290  TRP290     -0.2864
     13  CB       126.2910   80.3940  146.3860 C.3   290  TRP290      0.0576
     14  CG       125.9700   81.3510  145.2800 C.ar  290  TRP290      0.0006
     15  CD1      125.4960   82.6270  145.4040 C.ar  290  TRP290      0.0946
     16  CD2      126.0690   81.0950  143.8760 C.ar  290  TRP290      0.0152
     17  NE1      125.2980   83.1800  144.1630 N.ar  290  TRP290     -0.2442
     18  CE2      125.6400   82.2600  143.2070 C.ar  290  TRP290      0.0810
     19  CE3      126.4780   79.9920  143.1180 C.ar  290  TRP290      0.0012
     20  CZ2      125.6100   82.3540  141.8210 C.ar  290  TRP290      0.0191
     21  CZ3      126.4480   80.0850  141.7400 C.ar  290  TRP290      0.0001
     22  CH2      126.0180   81.2580  141.1030 C.ar  290  TRP290      0.0015
     23  N        127.6650   76.5280  148.6530 N.3   292  TYR292     -0.1227
     24  CA       127.7940   75.1550  148.1710 C.3   292  TYR292      0.1736
     25  C        129.1050   74.4680  148.5780 C.2   292  TYR292      0.2595
     26  O        129.7480   73.8190  147.7610 O.2   292  TYR292     -0.2718
     27  CB       127.6100   75.1190  146.6440 C.3   292  TYR292      0.0548
     28  CG       126.2180   75.5620  146.2000 C.ar  292  TYR292     -0.0200
     29  CD1      125.1020   74.7440  146.4040 C.ar  292  TYR292     -0.0009
     30  CD2      126.0150   76.8080  145.5960 C.ar  292  TYR292     -0.0009
     31  CE1      123.8180   75.1550  146.0190 C.ar  292  TYR292      0.0417
     32  CE2      124.7370   77.2270  145.2080 C.ar  292  TYR292      0.0417
     33  CZ       123.6440   76.3970  145.4240 C.ar  292  TYR292      0.1957
     34  OH       122.3800   76.8160  145.0630 O.3   292  TYR292     -0.2866
     35  N        129.4750   74.6120  149.8510 N.am  293  ASN293     -0.1974
     36  CA       130.6880   74.0040  150.4160 C.3   293  ASN293      0.1688
     37  C        130.3030   73.4400  151.7840 C.2   293  ASN293      0.2292
     38  O        130.6640   73.9950  152.8160 O.2   293  ASN293     -0.2864
     39  CB       131.7830   75.0570  150.5910 C.3   293  ASN293      0.1181
     40  CG       132.0820   75.7930  149.3110 C.2   293  ASN293      0.2629
     41  OD1      132.4660   75.1870  148.3150 O.2   293  ASN293     -0.2716
     42  ND2      131.9010   77.1100  149.3240 N.am  293  ASN293     -0.0877
     43  N        125.6820   65.8960  147.2200 N.3   339  ASN339     -0.1225
     44  CA       126.5720   65.3310  146.2110 C.3   339  ASN339      0.1785
     45  C        128.0650   65.4230  146.5350 C.2   339  ASN339      0.2597
     46  O        128.8760   64.7350  145.9090 O.2   339  ASN339     -0.2718
     47  CB       126.3210   65.9920  144.8570 C.3   339  ASN339      0.1169
     48  CG       126.4590   67.4990  144.9120 C.2   339  ASN339      0.2627
     49  OD1      125.5040   68.2150  145.2340 O.2   339  ASN339     -0.2716
     50  ND2      127.6540   67.9910  144.6070 N.am  339  ASN339     -0.0877
     51  N        128.4280   66.2570  147.5070 N.am  340  HIS340     -0.1975
     52  CA       129.8360   66.4140  147.8680 C.3   340  HIS340      0.1656
     53  C        130.0190   67.1990  149.1700 C.2   340  HIS340      0.2291
     54  O        129.0680   67.7970  149.6850 O.2   340  HIS340     -0.2864
     55  CB       130.5680   67.1500  146.7460 C.3   340  HIS340      0.0771
     56  CG       130.3670   68.6310  146.7720 C.ar  340  HIS340      0.0820
     57  ND1      131.1650   69.4750  147.5120 N.ar  340  HIS340     -0.2267
     58  CD2      129.4400   69.4180  146.1770 C.ar  340  HIS340      0.1154
     59  CE1      130.7410   70.7200  147.3710 C.ar  340  HIS340      0.1986
     60  NE2      129.6950   70.7130  146.5650 N.ar  340  HIS340     -0.2212
     61  N        132.8600   69.9550  151.3800 N.3   342  TYR342     -0.1241
     62  CA       133.9040   70.9480  151.1460 C.3   342  TYR342      0.1605
     63  C        135.3030   70.3480  150.8810 C.2   342  TYR342      0.2264
     64  O        135.8190   70.4630  149.7660 O.2   342  TYR342     -0.2867
     65  CB       133.9580   71.9320  152.3210 C.3   342  TYR342      0.0534
     66  CG       134.9270   73.0670  152.1130 C.ar  342  TYR342     -0.0201
     67  CD1      135.7850   73.4710  153.1390 C.ar  342  TYR342     -0.0009
     68  CD2      135.0280   73.7050  150.8770 C.ar  342  TYR342     -0.0009
     69  CE1      136.7300   74.4760  152.9340 C.ar  342  TYR342      0.0417
     70  CE2      135.9650   74.7110  150.6610 C.ar  342  TYR342      0.0417
     71  CZ       136.8140   75.0890  151.6940 C.ar  342  TYR342      0.1957
     72  OH       137.7540   76.0720  151.4800 O.3   342  TYR342     -0.2866
     73  N        131.2890   65.9030  140.1490 N.3   370  THR370     -0.1203
     74  CA       130.7330   67.1790  140.6000 C.3   370  THR370      0.1994
     75  C        131.6190   68.3130  140.1010 C.2   370  THR370      0.2618
     76  O        131.1610   69.4420  139.9140 O.2   370  THR370     -0.2717
     77  CB       130.6730   67.2700  142.1460 C.3   370  THR370      0.1784
     78  OG1      132.0000   67.1880  142.6840 O.3   370  THR370     -0.2211
     79  CG2      129.8180   66.1390  142.7240 C.3   370  THR370      0.0376
     80  N        132.8940   68.0010  139.8880 N.am  371  GLY371     -0.1942
     81  CA       133.8310   69.0020  139.4250 C.3   371  GLY371      0.2014
     82  C        134.3670   69.8530  140.5610 C.2   371  GLY371      0.2638
     83  O        135.0360   70.8600  140.3170 O.2   371  GLY371     -0.2714
     84  N        134.0730   69.4610  141.8000 N.am  372  VAL372     -0.1977
     85  CA       134.5470   70.2100  142.9650 C.3   372  VAL372      0.1596
     86  C        135.5660   69.4260  143.8030 C.2   372  VAL372      0.2287
     87  O        136.0680   69.9310  144.8090 O.2   372  VAL372     -0.2864
     88  CB       133.3670   70.6700  143.8800 C.3   372  VAL372      0.0276
     89  CG1      132.4210   71.5760  143.0960 C.3   372  VAL372      0.0022
     90  CG2      132.6170   69.4700  144.4290 C.3   372  VAL372      0.0022
     91  N        115.1010   71.2630  147.0740 N.3   404  ARG404     -0.1245
     92  CA       115.6290   71.4150  145.7220 C.3   404  ARG404      0.1563
     93  C        117.0000   70.7370  145.8300 C.2   404  ARG404      0.2260
     94  O        117.8640   71.2010  146.5670 O.2   404  ARG404     -0.2867
     95  CB       115.7630   72.9020  145.3840 C.3   404  ARG404      0.0307
     96  CG       116.4100   73.2370  144.0400 C.3   404  ARG404      0.0489
     97  CD       117.9150   73.4360  144.1780 C.3   404  ARG404      0.2205
     98  NE       118.5190   74.0100  142.9770 N.pl3 404  ARG404     -0.0865
     99  CZ       119.8320   74.0710  142.7550 C.cat 404  ARG404      0.5346
    100  NH1      120.6870   73.5930  143.6510 N.pl3 404  ARG404      0.1354
    101  NH2      120.2990   74.6150  141.6350 N.pl3 404  ARG404      0.1354
    102  N        120.6340   69.8030  144.8110 N.3   406  ASP406     -0.1225
    103  CA       121.7840   70.2500  144.0350 C.3   406  ASP406      0.1805
    104  C        122.4250   69.0250  143.3740 C.2   406  ASP406      0.2597
    105  O        122.6280   68.0090  144.0300 O.2   406  ASP406     -0.2718
    106  CB       122.7820   70.9460  144.9650 C.3   406  ASP406      0.1424
    107  CG       123.9390   71.5660  144.2190 C.2   406  ASP406      0.3668
    108  OD1      123.6760   72.3840  143.3100 O.co2 406  ASP406     -0.2456
    109  OD2      125.1080   71.2380  144.5420 O.co2 406  ASP406     -0.2456
    110  N        122.7290   69.1280  142.0780 N.am  407  LEU407     -0.1979
    111  CA       123.3280   68.0380  141.2920 C.3   407  LEU407      0.1596
    112  C        122.6620   66.6870  141.5460 C.2   407  LEU407      0.2287
    113  O        123.3140   65.6850  141.8780 O.2   407  LEU407     -0.2864
    114  CB       124.8380   67.9340  141.5520 C.3   407  LEU407      0.0297
    115  CG       125.6980   69.1360  141.1420 C.3   407  LEU407      0.0022
    116  CD1      127.1690   68.7840  141.3180 C.3   407  LEU407      0.0001
    117  CD2      125.4170   69.5200  139.6850 C.3   407  LEU407      0.0001
    118  N        118.2950   69.4550  139.8030 N.3   435  GLU435     -0.1245
    119  CA       118.9460   69.5190  138.4890 C.3   435  GLU435      0.1567
    120  C        119.4870   68.1540  138.0560 C.2   435  GLU435      0.2260
    121  O        120.4940   67.6740  138.5710 O.2   435  GLU435     -0.2867
    122  CB       120.0700   70.5660  138.4940 C.3   435  GLU435      0.0388
    123  CG       121.0080   70.5020  139.6880 C.3   435  GLU435      0.1160
    124  CD       121.9470   71.7160  139.7870 C.2   435  GLU435      0.3649
    125  OE1      122.7350   71.7770  140.7560 O.co2 435  GLU435     -0.2457
    126  OE2      121.9030   72.6060  138.9070 O.co2 435  GLU435     -0.2457
    127  N        121.2030   67.0070  135.4640 N.3   437  TRP437     -0.1241
    128  CA       122.1600   67.0570  134.3610 C.3   437  TRP437      0.1605
    129  C        122.8540   65.6930  134.2830 C.2   437  TRP437      0.2264
    130  O        122.9710   64.9920  135.2920 O.2   437  TRP437     -0.2867
    131  CB       123.2270   68.1340  134.6110 C.3   437  TRP437      0.0550
    132  CG       122.7230   69.4860  135.0750 C.ar  437  TRP437      0.0003
    133  CD1      123.3900   70.3650  135.8810 C.ar  437  TRP437      0.0946
    134  CD2      121.4720   70.1200  134.7450 C.ar  437  TRP437      0.0152
    135  NE1      122.6410   71.5000  136.0760 N.ar  437  TRP437     -0.2442
    136  CE2      121.4600   71.3790  135.3920 C.ar  437  TRP437      0.0810
    137  CE3      120.3640   69.7500  133.9660 C.ar  437  TRP437      0.0012
    138  CZ2      120.3830   72.2700  135.2870 C.ar  437  TRP437      0.0191
    139  CZ3      119.2910   70.6400  133.8610 C.ar  437  TRP437      0.0001
    140  CH2      119.3120   71.8840  134.5200 C.ar  437  TRP437      0.0015
    141  N        120.0230   81.3970  139.8610 N.3   524  HIS524     -0.1226
    142  CA       121.2330   82.0120  140.3940 C.3   524  HIS524      0.1752
    143  C        122.4530   81.6770  139.5310 C.2   524  HIS524      0.2596
    144  O        123.4440   82.4110  139.5410 O.2   524  HIS524     -0.2718
    145  CB       121.4800   81.5880  141.8500 C.3   524  HIS524      0.0759
    146  CG       121.8170   80.1380  142.0170 C.ar  524  HIS524      0.0818
    147  ND1      120.8550   79.1550  142.1170 N.ar  524  HIS524     -0.2268
    148  CD2      123.0120   79.5030  142.0640 C.ar  524  HIS524      0.1154
    149  CE1      121.4430   77.9770  142.2160 C.ar  524  HIS524      0.1986
    150  NE2      122.7510   78.1600  142.1850 N.ar  524  HIS524     -0.2212
    151  N        122.3660   80.5750  138.7830 N.am  525  ASP525     -0.1974
    152  CA       123.4370   80.1280  137.8810 C.3   525  ASP525      0.1709
    153  C        123.4220   80.9020  136.5590 C.2   525  ASP525      0.2293
    154  O        122.3520   81.2750  136.0740 O.2   525  ASP525     -0.2864
    155  CB       123.2720   78.6390  137.5430 C.3   525  ASP525      0.1436
    156  CG       123.8350   77.7190  138.6120 C.2   525  ASP525      0.3671
    157  OD1      123.1520   76.7230  138.9440 O.co2 525  ASP525     -0.2456
    158  OD2      124.9600   77.9790  139.1000 O.co2 525  ASP525     -0.2456
    159  N        129.2270   83.7680  136.6600 N.3   580  ASN580     -0.1240
    160  CA       129.2310   82.8180  137.7770 C.3   580  ASN580      0.1653
    161  C        129.6390   83.5910  139.0350 C.2   580  ASN580      0.2266
    162  O        130.8230   83.6540  139.3790 O.2   580  ASN580     -0.2867
    163  CB       130.2550   81.7190  137.4730 C.3   580  ASN580      0.1155
    164  CG       130.2540   80.6150  138.4980 C.2   580  ASN580      0.2627
    165  OD1      131.1540   79.7690  138.5120 O.2   580  ASN580     -0.2716
    166  ND2      129.2420   80.6040  139.3620 N.am  580  ASN580     -0.0877
    167  N        129.2480   83.0710  142.3860 N.3   582  TYR582     -0.1241
    168  CA       129.2700   82.3990  143.6840 C.3   582  TYR582      0.1605
    169  C        130.0760   83.0740  144.8000 C.2   582  TYR582      0.2264
    170  O        129.7630   82.8950  145.9790 O.2   582  TYR582     -0.2867
    171  CB       129.7510   80.9570  143.5260 C.3   582  TYR582      0.0534
    172  CG       131.2290   80.8200  143.2440 C.ar  582  TYR582     -0.0201
    173  CD1      131.7610   81.1770  142.0070 C.ar  582  TYR582     -0.0009
    174  CD2      132.0940   80.3210  144.2150 C.ar  582  TYR582     -0.0009
    175  CE1      133.1220   81.0350  141.7400 C.ar  582  TYR582      0.0417
    176  CE2      133.4520   80.1760  143.9610 C.ar  582  TYR582      0.0417
    177  CZ       133.9590   80.5320  142.7230 C.ar  582  TYR582      0.1957
    178  OH       135.3000   80.3820  142.4720 O.3   582  TYR582     -0.2866
@<TRIPOS>BOND
     1   139   137   ar
     2   139   140   ar
     3   137   134   ar
     4   129   128    1
     5   129   130    2
     6   128   131    1
     7   128   127    1
     8   140   138   ar
     9   131   132    1
    10   134   132   ar
    11   134   136   ar
    12   132   133   ar
    13   138   136   ar
    14   136   135   ar
    15   133   135   ar
    16   154   153    2
    17   153   152    1
    18   159   160    1
    19   163   160    1
    20   163   164    1
    21   155   152    1
    22   155   156    1
    23   160   161    1
    24   152   151    1
    25   120   119    1
    26   120   121    2
    27   119   122    1
    28   119   118    1
    29   122   123    1
    30   164   165    2
    31   164   166   am
    32   156   157   ar
    33   156   158   ar
    34   151   143   am
    35   126   124   ar
    36   161   162    2
    37    81    80    1
    38    81    82    1
    39   143   144    2
    40   143   142    1
    41   117   115    1
    42   123   124    1
    43   124   125   ar
    44   141   142    1
    45    80    75   am
    46    76    75    2
    47    75    74    1
    48    73    74    1
    49    83    82    2
    50   142   145    1
    51    82    84   am
    52    74    77    1
    53    22    21   ar
    54    22    20   ar
    55   115   116    1
    56   115   114    1
    57   111   112    1
    58   111   114    1
    59   111   110    1
    60   112   113    2
    61   101    99    1
    62    21    19   ar
    63   175   173   ar
    64   175   177   ar
    65    84    85    1
    66    20    18   ar
    67   145   146    1
    68   173   172   ar
    69   146   148   ar
    70   146   147   ar
    71   148   150   ar
    72   110   104   am
    73   147   149   ar
    74    77    78    1
    75    77    79    1
    76   150   149   ar
    77   167   168    1
    78   178   177    1
    79   177   176   ar
    80    99    98    2
    81    99   100    1
    82    85    86    1
    83    85    88    1
    84    98    97    1
    85    89    88    1
    86    19    16   ar
    87    18    16   ar
    88    18    17   ar
    89   172   171    1
    90   172   174   ar
    91   108   107   ar
    92   104   105    2
    93   104   103    1
    94   171   168    1
    95   168   169    1
    96    86    87    2
    97    16    14   ar
    98    88    90    1
    99   176   174   ar
   100   103   102    1
   101   103   106    1
   102    96    97    1
   103    96    95    1
   104    17    15   ar
   105   107   109   ar
   106   107   106    1
   107    50    48   am
   108   169   170    2
   109    47    48    1
   110    47    44    1
   111    48    49    2
   112    34    33    1
   113    32    33   ar
   114    32    30   ar
   115    14    15   ar
   116    14    13    1
   117    95    92    1
   118    33    31   ar
   119    30    28   ar
   120    92    93    1
   121    92    91    1
   122    93    94    2
   123    46    45    2
   124    31    29   ar
   125    58    60   ar
   126    58    56   ar
   127    28    29   ar
   128    28    27    1
   129    44    45    1
   130    44    43    1
   131    13    10    1
   132    45    51   am
   133    60    59   ar
   134    27    24    1
   135    55    56    1
   136    55    52    1
   137    56    57   ar
   138    59    57   ar
   139    51    52    1
   140    26    25    2
   141    10     9    1
   142    10    11    1
   143    52    53    1
   144     9     3   am
   145    24    25    1
   146    24    23    1
   147    41    40    2
   148    25    35   am
   149     8     6   am
   150     7     6    2
   151    11    12    2
   152     6     5    1
   153     3     2    1
   154     3     4    2
   155     2     1    1
   156     2     5    1
   157    53    54    2
   158    40    42   am
   159    40    39    1
   160    64    63    2
   161    35    36    1
   162    36    39    1
   163    36    37    1
   164    70    68   ar
   165    70    71   ar
   166    68    66   ar
   167    63    62    1
   168    62    61    1
   169    62    65    1
   170    72    71    1
   171    71    69   ar
   172    37    38    2
   173    66    65    1
   174    66    67   ar
   175    69    67   ar
