@<TRIPOS>MOLECULE
tmp/2e9cA01.pdb
 121 110 0 0 0
SMALL
GASTEIGER

@<TRIPOS>ATOM
      1  N         40.5750   35.0810   61.7190 N.3    34  ALA34      -0.1245
      2  CA        41.4650   33.9250   61.4830 C.3    34  ALA34       0.1562
      3  C         40.9640   32.7200   62.2800 C.2    34  ALA34       0.2260
      4  O         41.0720   31.5990   61.8160 O.2    34  ALA34      -0.2867
      5  CB        42.9310   34.2420   61.8820 C.3    34  ALA34       0.0290
      6  N         38.2720   31.2600   60.3040 N.3    37  VAL37      -0.1231
      7  CA        38.7890   30.5710   59.1380 C.3    37  VAL37       0.1692
      8  C         39.2150   29.1610   59.5550 C.2    37  VAL37       0.2591
      9  O         38.8720   28.2230   58.8820 O.2    37  VAL37      -0.2718
     10  CB        40.0280   31.2740   58.4860 C.3    37  VAL37       0.0266
     11  CG1       40.6740   30.3190   57.4170 C.3    37  VAL37       0.0020
     12  CG2       39.6050   32.5890   57.8000 C.3    37  VAL37       0.0020
     13  N         39.9420   28.9980   60.6590 N.am   38  ARG38      -0.1980
     14  CA        40.3530   27.6400   61.0740 C.3    38  ARG38       0.1597
     15  C         39.0970   26.8040   61.3260 C.2    38  ARG38       0.2287
     16  O         38.9830   25.6370   60.9540 O.2    38  ARG38      -0.2864
     17  CB        41.1520   27.6680   62.3840 C.3    38  ARG38       0.0334
     18  CG        42.4740   28.4080   62.3540 C.3    38  ARG38       0.0492
     19  CD        43.0720   28.5240   63.8010 C.3    38  ARG38       0.2205
     20  NE        44.4180   29.1280   63.8670 N.pl3  38  ARG38      -0.0865
     21  CZ        44.7040   30.4110   63.6270 C.cat  38  ARG38       0.5346
     22  NH1       43.7440   31.2660   63.2970 N.pl3  38  ARG38       0.1354
     23  NH2       45.9590   30.8430   63.7210 N.pl3  38  ARG38       0.1354
     24  N         37.5620   25.7470   58.0800 N.3    41  VAL41      -0.1231
     25  CA        38.3800   24.7530   57.4000 C.3    41  VAL41       0.1692
     26  C         38.1870   23.3930   58.0850 C.2    41  VAL41       0.2592
     27  O         37.9900   22.4070   57.4070 O.2    41  VAL41      -0.2718
     28  CB        39.8680   25.1780   57.3780 C.3    41  VAL41       0.0266
     29  CG1       40.7980   23.9740   56.9260 C.3    41  VAL41       0.0020
     30  CG2       40.0260   26.3520   56.4150 C.3    41  VAL41       0.0020
     31  N         38.2010   23.3600   59.4210 N.am   42  SER42      -0.1952
     32  CA        37.9810   22.1010   60.1580 C.3    42  SER42       0.1924
     33  C         36.6140   21.5560   59.7900 C.2    42  SER42       0.2314
     34  O         36.4550   20.3780   59.4730 O.2    42  SER42      -0.2863
     35  CB        37.9640   22.3100   61.6660 C.3    42  SER42       0.2116
     36  OG        39.2010   22.7930   62.1090 O.3    42  SER42      -0.2180
     37  N         36.6080   20.0360   56.2470 N.3    45  ALA45      -0.1231
     38  CA        37.3580   18.7730   56.2450 C.3    45  ALA45       0.1694
     39  C         36.5560   17.6560   56.9140 C.2    45  ALA45       0.2592
     40  O         36.3850   16.6070   56.3480 O.2    45  ALA45      -0.2718
     41  CB        38.7180   18.9540   56.9460 C.3    45  ALA45       0.0304
     42  N         36.0280   17.8960   58.1040 N.am   46  ASN46      -0.1974
     43  CA        35.2680   16.8530   58.7840 C.3    46  ASN46       0.1688
     44  C         33.9620   16.5310   58.1120 C.2    46  ASN46       0.2292
     45  O         33.2910   15.6150   58.5460 O.2    46  ASN46      -0.2864
     46  CB        34.9190   17.2190   60.2250 C.3    46  ASN46       0.1181
     47  CG        36.1230   17.5180   61.0630 C.2    46  ASN46       0.2629
     48  OD1       37.2110   17.0250   60.8130 O.2    46  ASN46      -0.2716
     49  ND2       35.9300   18.3360   62.0810 N.am   46  ASN46      -0.0877
     50  N         51.4050   32.9400   55.4620 N.3    61  LEU61      -0.1245
     51  CA        50.8840   31.5450   55.3970 C.3    61  LEU61       0.1561
     52  C         51.9470   30.4570   55.5250 C.2    61  LEU61       0.2260
     53  O         51.8280   29.4050   54.9050 O.2    61  LEU61      -0.2867
     54  CB        50.1100   31.3300   54.0880 C.3    61  LEU61       0.0270
     55  CG        50.7460   31.5830   52.7190 C.3    61  LEU61       0.0019
     56  CD1       51.8560   30.5950   52.4280 C.3    61  LEU61       0.0001
     57  CD2       49.6620   31.4520   51.6670 C.3    61  LEU61       0.0001
     58  N         50.9260   28.3140   59.1430 N.3    64  GLU64      -0.1245
     59  CA        49.6970   27.5860   58.8590 C.3    64  GLU64       0.1567
     60  C         49.8480   26.3660   57.9670 C.2    64  GLU64       0.2260
     61  O         49.1700   25.3620   58.1630 O.2    64  GLU64      -0.2867
     62  CB        48.6710   28.5320   58.2210 C.3    64  GLU64       0.0388
     63  CG        48.2650   29.7070   59.0830 C.3    64  GLU64       0.1160
     64  CD        47.5110   29.2820   60.3200 C.2    64  GLU64       0.3649
     65  OE1       46.9410   30.1620   61.0060 O.co2  64  GLU64      -0.2457
     66  OE2       47.4840   28.0690   60.6140 O.co2  64  GLU64      -0.2457
     67  N         50.3890   23.0720   59.9260 N.3    67  SER67      -0.1202
     68  CA        49.1830   22.5520   60.5520 C.3    67  SER67       0.2020
     69  C         48.3010   22.0440   59.4190 C.2    67  SER67       0.2618
     70  O         47.6260   21.0220   59.5490 O.2    67  SER67      -0.2717
     71  CB        48.4590   23.6490   61.3300 C.3    67  SER67       0.2103
     72  OG        47.0700   23.3740   61.4180 O.3    67  SER67      -0.2182
     73  N         48.3050   22.7560   58.2980 N.am   68  LEU68      -0.1979
     74  CA        47.4900   22.3260   57.1620 C.3    68  LEU68       0.1596
     75  C         47.9240   20.9510   56.7190 C.2    68  LEU68       0.2287
     76  O         47.1060   20.0370   56.6470 O.2    68  LEU68      -0.2864
     77  CB        47.6080   23.2850   55.9840 C.3    68  LEU68       0.0297
     78  CG        46.7720   24.5440   56.1500 C.3    68  LEU68       0.0022
     79  CD1       47.1610   25.5100   55.0900 C.3    68  LEU68       0.0001
     80  CD2       45.3020   24.2100   56.0750 C.3    68  LEU68       0.0001
     81  N         47.0690   18.2690   58.7800 N.3    71  HIS71      -0.1241
     82  CA        45.6480   17.8800   58.7250 C.3    71  HIS71       0.1621
     83  C         45.2310   17.3070   57.3550 C.2    71  HIS71       0.2264
     84  O         44.0440   17.1680   57.0390 O.2    71  HIS71      -0.2867
     85  CB        44.7700   19.0450   59.1290 C.3    71  HIS71       0.0745
     86  CG        44.9990   19.4680   60.5390 C.ar   71  HIS71       0.0817
     87  ND1       46.1330   20.1400   60.9310 N.ar   71  HIS71      -0.2268
     88  CD2       44.3340   19.1680   61.6740 C.ar   71  HIS71       0.1154
     89  CE1       46.1670   20.2270   62.2480 C.ar   71  HIS71       0.1986
     90  NE2       45.0890   19.6390   62.7240 N.ar   71  HIS71      -0.2212
     91  N         45.5270   18.5320   54.3600 N.3    73  VAL73      -0.1245
     92  CA        44.8150   19.4780   53.5150 C.3    73  VAL73       0.1561
     93  C         45.6940   19.8240   52.3380 C.2    73  VAL73       0.2260
     94  O         46.8970   19.9690   52.4900 O.2    73  VAL73      -0.2867
     95  CB        44.4980   20.7920   54.2510 C.3    73  VAL73       0.0252
     96  CG1       44.0270   21.8850   53.2310 C.3    73  VAL73       0.0019
     97  CG2       43.4250   20.5460   55.2890 C.3    73  VAL73       0.0019
     98  N         46.7390   22.6100   49.7060 N.3    75  LEU75      -0.1245
     99  CA        46.6510   24.0620   49.5890 C.3    75  LEU75       0.1561
    100  C         47.0200   24.6890   48.2490 C.2    75  LEU75       0.2260
    101  O         48.0720   24.3790   47.6910 O.2    75  LEU75      -0.2867
    102  CB        47.5380   24.7160   50.6420 C.3    75  LEU75       0.0270
    103  CG        47.5970   26.2410   50.4940 C.3    75  LEU75       0.0019
    104  CD1       46.3320   26.8650   51.0990 C.3    75  LEU75       0.0001
    105  CD2       48.8240   26.7820   51.2000 C.3    75  LEU75       0.0001
    106  N         42.0200   23.2060   49.9200 N.3   107  LEU107     -0.1245
    107  CA        41.7380   24.5840   50.3060 C.3   107  LEU107      0.1561
    108  C         42.3720   25.6130   49.3670 C.2   107  LEU107      0.2260
    109  O         43.6130   25.6980   49.2440 O.2   107  LEU107     -0.2867
    110  CB        42.2580   24.8290   51.7410 C.3   107  LEU107      0.0270
    111  CG        42.1780   26.2430   52.3190 C.3   107  LEU107      0.0019
    112  CD1       40.7130   26.6460   52.3950 C.3   107  LEU107      0.0001
    113  CD2       42.7910   26.2390   53.7200 C.3   107  LEU107      0.0001
    114  N         42.8720   29.6610   48.6170 N.3   109  ILE109     -0.1245
    115  CA        42.8630   30.9640   49.2470 C.3   109  ILE109      0.1561
    116  C         43.1380   31.9710   48.1600 C.2   109  ILE109      0.2260
    117  O         44.1290   31.8160   47.4350 O.2   109  ILE109     -0.2867
    118  CB        43.9560   31.0470   50.3060 C.3   109  ILE109      0.0252
    119  CG1       43.8220   29.8190   51.1950 C.3   109  ILE109      0.0019
    120  CG2       43.9090   32.4080   51.0550 C.3   109  ILE109      0.0019
    121  CD1       44.2390   29.9980   52.5840 C.3   109  ILE109      0.0001
@<TRIPOS>BOND
     1   117   116    2
     2   101   100    2
     3   116   115    1
     4   100    99    1
     5   114   115    1
     6   109   108    2
     7   115   118    1
     8   108   107    1
     9    99    98    1
    10    99   102    1
    11   106   107    1
    12   118   120    1
    13   118   119    1
    14   107   110    1
    15   103   102    1
    16   103   104    1
    17   103   105    1
    18   119   121    1
    19    57    55    1
    20   110   111    1
    21   111   112    1
    22   111   113    1
    23    93    94    2
    24    93    92    1
    25    56    55    1
    26    55    54    1
    27    96    95    1
    28    92    95    1
    29    92    91    1
    30    54    51    1
    31    95    97    1
    32    53    52    2
    33    79    78    1
    34    51    50    1
    35    51    52    1
    36    77    78    1
    37    77    74    1
    38    80    78    1
    39    38    37    1
    40    38    39    1
    41    38    41    1
    42    40    39    2
    43    30    28    1
    44    76    75    2
    45    75    74    1
    46    39    42   am
    47    29    28    1
    48    84    83    2
    49    74    73    1
    50    83    82    1
    51    28    25    1
    52    25    24    1
    53    25    26    1
    54    27    26    2
    55    11    10    1
    56    12    10    1
    57    60    61    2
    58    60    59    1
    59    26    31   am
    60    42    43    1
    61    44    45    2
    62    44    43    1
    63    62    59    1
    64    62    63    1
    65    73    69   am
    66    10     7    1
    67    82    81    1
    68    82    85    1
    69    43    46    1
    70    59    58    1
    71     9     8    2
    72    63    64    1
    73    85    86    1
    74     7     8    1
    75     7     6    1
    76    69    70    2
    77    69    68    1
    78    31    32    1
    79    34    33    2
    80     8    13   am
    81    33    32    1
    82    67    68    1
    83    32    35    1
    84    46    47    1
    85    64    66   ar
    86    64    65   ar
    87    86    87   ar
    88    86    88   ar
    89    68    71    1
    90    13    14    1
    91    48    47    2
    92    87    89   ar
    93    16    15    2
    94    47    49   am
    95    14    15    1
    96    14    17    1
    97    71    72    1
    98     2     1    1
    99     2     5    1
   100     2     3    1
   101    35    36    1
   102    88    90   ar
   103     4     3    2
   104    89    90   ar
   105    18    17    1
   106    18    19    1
   107    22    21    1
   108    21    23    1
   109    21    20    2
   110    19    20    1
