@<TRIPOS>MOLECULE
tmp/2e9cA00.pdb
 165 160 0 0 0
SMALL
GASTEIGER

@<TRIPOS>ATOM
      1  N         34.1880   36.1090   52.7210 N.3    12  MET12      -0.1230
      2  CA        34.2810   36.3990   54.1480 C.3    12  MET12       0.1702
      3  C         34.2280   37.8910   54.3630 C.2    12  MET12       0.2592
      4  O         35.0620   38.6380   53.8340 O.2    12  MET12      -0.2718
      5  CB        35.5820   35.8320   54.7230 C.3    12  MET12       0.0401
      6  CG        35.7560   34.2930   54.4840 C.3    12  MET12       0.0596
      7  SD        37.3900   33.7390   55.0970 S.3    12  MET12      -0.1393
      8  CE        38.4910   34.7120   53.8910 C.3    12  MET12       0.0692
      9  N         33.2410   38.3310   55.1270 N.am   13  ASP13      -0.1960
     10  CA        33.1090   39.7640   55.3610 C.3    13  ASP13       0.1840
     11  C         32.5010   40.0440   56.7140 C.2    13  ASP13       0.2623
     12  O         31.7310   39.2510   57.2500 O.2    13  ASP13      -0.2715
     13  CB        32.2440   40.3640   54.2520 C.3    13  ASP13       0.1450
     14  CG        32.2060   41.8770   54.2800 C.2    13  ASP13       0.3671
     15  OD1       33.1170   42.4940   54.8880 O.co2  13  ASP13      -0.2456
     16  OD2       31.2630   42.4400   53.6610 O.co2  13  ASP13      -0.2456
     17  N         32.8810   41.1760   57.2850 N.am   14  GLY14      -0.1940
     18  CA        32.2830   41.5570   58.5480 C.3    14  GLY14       0.2014
     19  C         33.1830   41.6500   59.7690 C.2    14  GLY14       0.2639
     20  O         32.6880   41.9780   60.8690 O.2    14  GLY14      -0.2714
     21  N         34.4720   41.3720   59.6200 N.am   15  ASN15      -0.1958
     22  CA        35.3410   41.4060   60.7920 C.3    15  ASN15       0.1819
     23  C         35.4150   42.7890   61.4050 C.2    15  ASN15       0.2622
     24  O         35.3800   42.9310   62.6340 O.2    15  ASN15      -0.2715
     25  CB        36.7670   40.9850   60.4640 C.3    15  ASN15       0.1195
     26  CG        36.8540   39.5950   59.8520 C.2    15  ASN15       0.2630
     27  OD1       36.3350   38.5900   60.3810 O.2    15  ASN15      -0.2716
     28  ND2       37.5560   39.5300   58.7550 N.am   15  ASN15      -0.0877
     29  N         35.5560   43.7780   60.5380 N.am   16  GLY16      -0.1940
     30  CA        35.6760   45.1520   60.9740 C.3    16  GLY16       0.2014
     31  C         34.4770   45.5750   61.7630 C.2    16  GLY16       0.2638
     32  O         34.6270   46.1110   62.8850 O.2    16  GLY16      -0.2714
     33  N         33.2940   45.2980   61.2090 N.am   17  ARG17      -0.1977
     34  CA        32.0710   45.6710   61.8760 C.3    17  ARG17       0.1597
     35  C         32.0100   44.9330   63.1740 C.2    17  ARG17       0.2287
     36  O         31.6300   45.5000   64.2090 O.2    17  ARG17      -0.2864
     37  CB        30.8500   45.3300   61.0130 C.3    17  ARG17       0.0334
     38  CG        30.1470   46.5670   60.4360 C.3    17  ARG17       0.0492
     39  CD        29.1360   46.1960   59.3580 C.3    17  ARG17       0.2205
     40  NE        29.8280   45.5340   58.2480 N.pl3  17  ARG17      -0.0865
     41  CZ        29.3430   44.4690   57.6340 C.cat  17  ARG17       0.5346
     42  NH1       28.1760   43.9810   58.0380 N.pl3  17  ARG17       0.1354
     43  NH2       30.0180   43.8920   56.6500 N.pl3  17  ARG17       0.1354
     44  N         40.4110   47.1690   64.4670 N.3    26  ARG26      -0.1245
     45  CA        40.4760   46.1850   63.4050 C.3    26  ARG26       0.1563
     46  C         41.2980   44.9420   63.7200 C.2    26  ARG26       0.2260
     47  O         40.8520   43.8320   63.4710 O.2    26  ARG26      -0.2867
     48  CB        40.9460   46.8500   62.1090 C.3    26  ARG26       0.0307
     49  CG        39.9500   47.9590   61.6190 C.3    26  ARG26       0.0489
     50  CD        39.0880   47.5720   60.4080 C.3    26  ARG26       0.2205
     51  NE        39.8470   47.6300   59.1570 N.pl3  26  ARG26      -0.0865
     52  CZ        40.4240   48.7320   58.6820 C.cat  26  ARG26       0.5346
     53  NH1       40.3210   49.8720   59.3570 N.pl3  26  ARG26       0.1354
     54  NH2       41.1170   48.6940   57.5400 N.pl3  26  ARG26       0.1354
     55  N         40.5770   40.9870   63.1420 N.3    30  HIS30      -0.1241
     56  CA        41.4210   40.1360   62.3230 C.3    30  HIS30       0.1621
     57  C         41.7480   38.8460   63.0790 C.2    30  HIS30       0.2264
     58  O         41.6520   37.7650   62.5260 O.2    30  HIS30      -0.2867
     59  CB        42.7110   40.8610   61.9010 C.3    30  HIS30       0.0745
     60  CG        42.5120   41.8460   60.7870 C.ar   30  HIS30       0.0817
     61  ND1       43.4220   42.8450   60.5050 N.ar   30  HIS30      -0.2268
     62  CD2       41.4990   41.9950   59.8950 C.ar   30  HIS30       0.1154
     63  CE1       42.9780   43.5660   59.4850 C.ar   30  HIS30       0.1986
     64  NE2       41.8100   43.0730   59.0970 N.ar   30  HIS30      -0.2212
     65  N         38.7110   36.8120   62.9770 N.3    33  GLY33      -0.1210
     66  CA        38.4640   36.3050   61.6380 C.3    33  GLY33       0.1956
     67  C         39.2930   35.0660   61.3420 C.2    33  GLY33       0.2611
     68  O         38.7660   34.1060   60.7900 O.2    33  GLY33      -0.2717
     69  N         40.5750   35.0810   61.7190 N.am   34  ALA34      -0.1979
     70  CA        41.4650   33.9250   61.4830 C.3    34  ALA34       0.1597
     71  C         40.9640   32.7200   62.2800 C.2    34  ALA34       0.2287
     72  O         41.0720   31.5990   61.8160 O.2    34  ALA34      -0.2864
     73  CB        42.9310   34.2420   61.8820 C.3    34  ALA34       0.0319
     74  N         38.2720   31.2600   60.3040 N.3    37  VAL37      -0.1245
     75  CA        38.7890   30.5710   59.1380 C.3    37  VAL37       0.1561
     76  C         39.2150   29.1610   59.5550 C.2    37  VAL37       0.2260
     77  O         38.8720   28.2230   58.8820 O.2    37  VAL37      -0.2867
     78  CB        40.0280   31.2740   58.4860 C.3    37  VAL37       0.0252
     79  CG1       40.6740   30.3190   57.4170 C.3    37  VAL37       0.0019
     80  CG2       39.6050   32.5890   57.8000 C.3    37  VAL37       0.0019
     81  N         38.2560   30.2630   49.8380 N.3    54  LEU54      -0.1245
     82  CA        38.0610   31.4420   50.6790 C.3    54  LEU54       0.1561
     83  C         38.5630   32.7570   50.0880 C.2    54  LEU54       0.2260
     84  O         39.6750   32.8320   49.5300 O.2    54  LEU54      -0.2867
     85  CB        38.7220   31.2110   52.0340 C.3    54  LEU54       0.0270
     86  CG        38.3690   29.9370   52.8250 C.3    54  LEU54       0.0019
     87  CD1       39.1520   29.8900   54.2120 C.3    54  LEU54       0.0001
     88  CD2       36.8530   29.8690   53.0000 C.3    54  LEU54       0.0001
     89  N         38.8150   36.8910   51.2750 N.3    56  ALA56      -0.1231
     90  CA        38.7200   37.9060   52.3230 C.3    56  ALA56       0.1694
     91  C         38.3100   39.2100   51.6980 C.2    56  ALA56       0.2592
     92  O         39.0960   39.8250   51.0180 O.2    56  ALA56      -0.2718
     93  CB        40.0470   38.0880   53.0070 C.3    56  ALA56       0.0304
     94  N         37.0720   39.6310   51.9050 N.am   57  PHE57      -0.1962
     95  CA        36.6380   40.8890   51.3230 C.3    57  PHE57       0.1771
     96  C         37.0360   42.0590   52.2240 C.2    57  PHE57       0.2620
     97  O         36.8420   42.0230   53.4390 O.2    57  PHE57      -0.2715
     98  CB        35.1330   40.9010   51.1600 C.3    57  PHE57       0.0574
     99  CG        34.6020   42.2070   50.6130 C.ar   57  PHE57      -0.0200
    100  CD1       34.6060   42.4580   49.2530 C.ar   57  PHE57      -0.0042
    101  CD2       34.1170   43.1840   51.4710 C.ar   57  PHE57      -0.0042
    102  CE1       34.1290   43.6810   48.7540 C.ar   57  PHE57      -0.0003
    103  CE2       33.6260   44.4130   50.9590 C.ar   57  PHE57      -0.0003
    104  CZ        33.6390   44.6470   49.6090 C.ar   57  PHE57      -0.0000
    105  N         37.5750   43.1040   51.6240 N.am   58  SER58      -0.1936
    106  CA        37.9760   44.2790   52.3840 C.3    58  SER58       0.2055
    107  C         37.2580   45.4760   51.7910 C.2    58  SER58       0.2644
    108  O         37.4000   45.7670   50.5980 O.2    58  SER58      -0.2714
    109  CB        39.4830   44.4840   52.3110 C.3    58  SER58       0.2130
    110  OG        39.8420   45.5590   53.1390 O.3    58  SER58      -0.2179
    111  N         36.4540   46.1210   52.6420 N.am   59  SER59      -0.1935
    112  CA        35.6590   47.2960   52.2900 C.3    59  SER59       0.2055
    113  C         36.6660   48.4190   52.1430 C.2    59  SER59       0.2642
    114  O         36.3040   49.5930   52.1550 O.2    59  SER59      -0.2714
    115  CB        34.6670   47.6460   53.4260 C.3    59  SER59       0.2130
    116  OG        34.1230   46.4850   54.0680 O.3    59  SER59      -0.2179
    117  N         37.9360   48.0230   52.0290 N.am   60  GLU60      -0.1976
    118  CA        39.0700   48.9300   51.8780 C.3    60  GLU60       0.1602
    119  C         39.7350   48.5910   50.5430 C.2    60  GLU60       0.2287
    120  O         40.9750   48.4190   50.4960 O.2    60  GLU60      -0.2864
    121  CB        40.0540   48.7220   53.0350 C.3    60  GLU60       0.0415
    122  CG        40.6490   50.0010   53.6180 C.3    60  GLU60       0.1163
    123  CD        40.3600   50.1630   55.1140 C.2    60  GLU60       0.3649
    124  OE1       40.9280   51.0880   55.7430 O.co2  60  GLU60      -0.2457
    125  OE2       39.5610   49.3680   55.6640 O.co2  60  GLU60      -0.2457
    126  N         42.8720   29.6610   48.6170 N.3   109  ILE109     -0.1231
    127  CA        42.8630   30.9640   49.2470 C.3   109  ILE109      0.1692
    128  C         43.1380   31.9710   48.1600 C.2   109  ILE109      0.2592
    129  O         44.1290   31.8160   47.4350 O.2   109  ILE109     -0.2718
    130  CB        43.9560   31.0470   50.3060 C.3   109  ILE109      0.0266
    131  CG1       43.8220   29.8190   51.1950 C.3   109  ILE109      0.0019
    132  CG2       43.9090   32.4080   51.0550 C.3   109  ILE109      0.0020
    133  CD1       44.2390   29.9980   52.5840 C.3   109  ILE109      0.0001
    134  N         42.2570   32.9750   48.0210 N.am  110  ALA110     -0.1966
    135  CA        42.4160   34.0300   47.0280 C.3   110  ALA110      0.1728
    136  C         43.3710   35.0910   47.5460 C.2   110  ALA110      0.2616
    137  O         43.2220   35.5420   48.6710 O.2   110  ALA110     -0.2715
    138  CB        41.0700   34.6900   46.7440 C.3   110  ALA110      0.0334
    139  N         44.3660   35.4910   46.7570 N.am  111  ALA111     -0.1963
    140  CA        45.2650   36.5570   47.1740 C.3   111  ALA111      0.1728
    141  C         45.3050   37.4260   45.9550 C.2   111  ALA111      0.2616
    142  O         45.7010   36.9530   44.8850 O.2   111  ALA111     -0.2715
    143  CB        46.6740   36.0200   47.4920 C.3   111  ALA111      0.0334
    144  N         44.8670   38.6720   46.0710 N.am  112  ASN112     -0.1972
    145  CA        44.8840   39.5320   44.9040 C.3   112  ASN112      0.1688
    146  C         44.1230   38.8260   43.7740 C.2   112  ASN112      0.2292
    147  O         44.6340   38.7010   42.6570 O.2   112  ASN112     -0.2864
    148  CB        46.3450   39.7960   44.4890 C.3   112  ASN112      0.1181
    149  CG        46.4890   40.8950   43.4370 C.2   112  ASN112      0.2629
    150  OD1       45.9020   41.9750   43.5530 O.2   112  ASN112     -0.2716
    151  ND2       47.3150   40.6280   42.4120 N.am  112  ASN112     -0.0877
    152  N         31.5790   37.6130   59.7970 N.3   189  TRP189     -0.1241
    153  CA        32.4990   36.4980   59.7130 C.3   189  TRP189      0.1605
    154  C         33.0170   35.8580   61.0060 C.2   189  TRP189      0.2264
    155  O         32.9810   34.6230   61.1310 O.2   189  TRP189     -0.2867
    156  CB        33.6340   36.8400   58.7540 C.3   189  TRP189      0.0550
    157  CG        34.5870   35.6950   58.5320 C.ar  189  TRP189      0.0003
    158  CD1       35.8800   35.6200   58.9750 C.ar  189  TRP189      0.0946
    159  CD2       34.2840   34.4120   57.9680 C.ar  189  TRP189      0.0152
    160  NE1       36.3980   34.3600   58.7250 N.ar  189  TRP189     -0.2442
    161  CE2       35.4410   33.6040   58.1130 C.ar  189  TRP189      0.0810
    162  CE3       33.1380   33.8580   57.3590 C.ar  189  TRP189      0.0012
    163  CZ2       35.4970   32.2720   57.6770 C.ar  189  TRP189      0.0191
    164  CZ3       33.1890   32.5300   56.9260 C.ar  189  TRP189      0.0001
    165  CH2       34.3680   31.7480   57.0890 C.ar  189  TRP189      0.0015
@<TRIPOS>BOND
     1   151   149   am
     2   147   146    2
     3   149   150    2
     4   149   148    1
     5   146   145    1
     6   148   145    1
     7   142   141    2
     8   145   144    1
     9   141   144   am
    10   141   140    1
    11   138   135    1
    12   139   140    1
    13   139   136   am
    14   135   136    1
    15   135   134    1
    16   140   143    1
    17   129   128    2
    18   136   137    2
    19   134   128   am
    20   128   127    1
    21   126   127    1
    22   102   100   ar
    23   102   104   ar
    24   127   130    1
    25   100    99   ar
    26    84    83    2
    27   104   103   ar
    28    81    82    1
    29    83    82    1
    30   130   132    1
    31   130   131    1
    32   120   119    2
    33   119   118    1
    34   108   107    2
    35    99    98    1
    36    99   101   ar
    37    82    85    1
    38   103   101   ar
    39    92    91    2
    40    98    95    1
    41   131   133    1
    42    89    90    1
    43    95    94    1
    44    95    96    1
    45   105    96   am
    46   105   106    1
    47    91    94   am
    48    91    90    1
    49   107   106    1
    50   107   111   am
    51   118   117    1
    52   118   121    1
    53   117   113   am
    54    85    86    1
    55   113   114    2
    56   113   112    1
    57    96    97    2
    58   112   111    1
    59   112   115    1
    60   109   106    1
    61   109   110    1
    62    90    93    1
    63     1     2    1
    64    86    88    1
    65    86    87    1
    66   121   122    1
    67   115   116    1
    68   122   123    1
    69    16    14   ar
    70     4     3    2
    71     8     7    1
    72     2     3    1
    73     2     5    1
    74    13    14    1
    75    13    10    1
    76    14    15   ar
    77     3     9   am
    78     6     5    1
    79     6     7    1
    80   123   125   ar
    81   123   124   ar
    82     9    10    1
    83    10    11    1
    84    43    41    1
    85    11    12    2
    86    11    17   am
    87   164   165   ar
    88   164   162   ar
    89   165   163   ar
    90    17    18    1
    91   162   159   ar
    92    79    78    1
    93    54    52    1
    94    41    42    1
    95    41    40    2
    96   163   161   ar
    97    80    78    1
    98   159   161   ar
    99   159   157   ar
   100   161   160   ar
   101    40    39    1
   102    78    75    1
   103   157   156    1
   104   157   158   ar
   105    18    19    1
   106    52    51    2
   107    52    53    1
   108   160   158   ar
   109   156   153    1
   110    28    26   am
   111    77    76    2
   112    64    63   ar
   113    64    62   ar
   114    75    76    1
   115    75    74    1
   116    51    50    1
   117    39    38    1
   118    63    61   ar
   119    21    19   am
   120    21    22    1
   121   153   152    1
   122   153   154    1
   123    19    20    2
   124    26    27    2
   125    26    25    1
   126    62    60   ar
   127    50    49    1
   128    38    37    1
   129    25    22    1
   130    61    60   ar
   131    29    30    1
   132    29    23   am
   133    60    59    1
   134    68    67    2
   135    22    23    1
   136    30    31    1
   137   154   155    2
   138    37    34    1
   139    33    31   am
   140    33    34    1
   141    67    66    1
   142    67    69   am
   143    23    24    2
   144    70    69    1
   145    70    73    1
   146    70    71    1
   147    49    48    1
   148    66    65    1
   149    31    32    2
   150    72    71    2
   151    34    35    1
   152    59    56    1
   153    48    45    1
   154    56    57    1
   155    56    55    1
   156    58    57    2
   157    35    36    2
   158    45    46    1
   159    45    44    1
   160    47    46    2
