@<TRIPOS>MOLECULE
tmp/2e9dB00.pdb
 113 103 0 0 0
SMALL
GASTEIGER

@<TRIPOS>ATOM
      1  N          5.2750   40.9210   31.8710 N.3    34  VAL34      -0.1231
      2  CA         6.3720   41.5660   31.1770 C.3    34  VAL34       0.1692
      3  C          5.9620   43.0030   30.7890 C.2    34  VAL34       0.2591
      4  O          6.7180   43.9620   31.0070 O.2    34  VAL34      -0.2718
      5  CB         6.8020   40.7380   29.9230 C.3    34  VAL34       0.0266
      6  CG1        7.7760   41.4960   29.0940 C.3    34  VAL34       0.0020
      7  CG2        7.4680   39.4440   30.3680 C.3    34  VAL34       0.0020
      8  N          4.7680   43.1640   30.2340 N.am   35  ARG35      -0.1980
      9  CA         4.3020   44.5000   29.8460 C.3    35  ARG35       0.1597
     10  C          4.2840   45.4420   31.0430 C.2    35  ARG35       0.2287
     11  O          4.7870   46.5520   30.9930 O.2    35  ARG35      -0.2864
     12  CB         2.9080   44.4330   29.2300 C.3    35  ARG35       0.0334
     13  CG         2.2600   45.7800   28.9060 C.3    35  ARG35       0.0492
     14  CD         0.8460   45.5630   28.2680 C.3    35  ARG35       0.2205
     15  NE         0.8080   44.3420   27.4320 N.pl3  35  ARG35      -0.0865
     16  CZ        -0.0490   44.0800   26.4410 C.cat  35  ARG35       0.5346
     17  NH1       -1.0130   44.9470   26.0860 N.pl3  35  ARG35       0.1354
     18  NH2        0.0840   42.9310   25.7850 N.pl3  35  ARG35       0.1354
     19  N          7.8950   46.4500   31.9940 N.3    38  VAL38      -0.1231
     20  CA         8.4540   47.4080   31.0760 C.3    38  VAL38       0.1692
     21  C          7.7860   48.8300   31.2970 C.2    38  VAL38       0.2592
     22  O          8.5190   49.8550   31.3180 O.2    38  VAL38      -0.2718
     23  CB         8.3210   46.8790   29.6000 C.3    38  VAL38       0.0266
     24  CG1        9.0260   47.7940   28.6310 C.3    38  VAL38       0.0020
     25  CG2        8.9360   45.4410   29.5050 C.3    38  VAL38       0.0020
     26  N          6.4430   48.9090   31.4730 N.am   39  SER39      -0.1952
     27  CA         5.7920   50.2160   31.7290 C.3    39  SER39       0.1924
     28  C          6.4460   50.8330   32.9540 C.2    39  SER39       0.2314
     29  O          6.7880   52.0090   32.9720 O.2    39  SER39      -0.2863
     30  CB         4.3110   50.1170   32.1040 C.3    39  SER39       0.2116
     31  OG         3.6370   49.2130   31.2750 O.3    39  SER39      -0.2180
     32  N         10.1060   52.0670   32.4620 N.3    42  ALA42      -0.1231
     33  CA        10.1010   53.2760   31.6320 C.3    42  ALA42       0.1694
     34  C          9.4540   54.5020   32.3070 C.2    42  ALA42       0.2592
     35  O          9.9170   55.6130   32.1740 O.2    42  ALA42      -0.2718
     36  CB         9.4180   52.9720   30.3420 C.3    42  ALA42       0.0304
     37  N          8.3780   54.2840   33.0470 N.am   43  ASN43      -0.1974
     38  CA         7.7130   55.3660   33.7240 C.3    43  ASN43       0.1688
     39  C          8.5730   55.8750   34.8660 C.2    43  ASN43       0.2292
     40  O          8.3260   56.9830   35.3680 O.2    43  ASN43      -0.2864
     41  CB         6.3740   54.8940   34.2720 C.3    43  ASN43       0.1181
     42  CG         5.3670   54.5980   33.1600 C.2    43  ASN43       0.2629
     43  OD1        4.3380   53.9230   33.3870 O.2    43  ASN43      -0.2716
     44  ND2        5.6410   55.1120   31.9570 N.am   43  ASN43      -0.0877
     45  N         15.6380   41.4610   30.1210 N.3    51  LEU51      -0.1245
     46  CA        14.7680   40.3520   30.4750 C.3    51  LEU51       0.1561
     47  C         15.2480   38.9530   30.0230 C.2    51  LEU51       0.2260
     48  O         15.6010   38.7010   28.8610 O.2    51  LEU51      -0.2867
     49  CB        13.3460   40.6500   29.9600 C.3    51  LEU51       0.0270
     50  CG        12.7420   41.9830   30.5080 C.3    51  LEU51       0.0019
     51  CD1       11.3580   42.2330   29.9620 C.3    51  LEU51       0.0001
     52  CD2       12.7120   41.9380   32.0420 C.3    51  LEU51       0.0001
     53  N          5.0040   38.0090   18.2370 N.3    66  ALA66      -0.1245
     54  CA         5.1740   38.9350   19.3550 C.3    66  ALA66       0.1562
     55  C          5.8460   40.2040   18.8200 C.2    66  ALA66       0.2260
     56  O          5.3820   41.3140   19.0470 O.2    66  ALA66      -0.2867
     57  CB         6.0570   38.2900   20.4310 C.3    66  ALA66       0.0290
     58  N          3.8720   43.5180   18.7200 N.3    70  GLU70      -0.1245
     59  CA         4.2550   44.3890   19.8290 C.3    70  GLU70       0.1567
     60  C          5.2850   45.4720   19.5620 C.2    70  GLU70       0.2260
     61  O          5.4660   46.3510   20.3640 O.2    70  GLU70      -0.2867
     62  CB         4.7190   43.5460   20.9950 C.3    70  GLU70       0.0388
     63  CG         3.5730   42.7220   21.5910 C.3    70  GLU70       0.1160
     64  CD         2.2960   43.5670   21.8280 C.2    70  GLU70       0.3649
     65  OE1        2.3320   44.4970   22.6610 O.co2  70  GLU70      -0.2457
     66  OE2        1.2500   43.3130   21.1740 O.co2  70  GLU70      -0.2457
     67  N          4.0760   49.5020   19.3480 N.3    73  SER73      -0.1202
     68  CA         3.8360   50.0740   20.6780 C.3    73  SER73       0.2020
     69  C          5.1180   50.4490   21.3780 C.2    73  SER73       0.2618
     70  O          5.2170   51.5100   21.9770 O.2    73  SER73      -0.2717
     71  CB         3.0910   49.0930   21.5980 C.3    73  SER73       0.2103
     72  OG         2.2350   48.2460   20.8540 O.3    73  SER73      -0.2182
     73  N          6.1000   49.5650   21.3330 N.am   74  LEU74      -0.1979
     74  CA         7.3530   49.8630   21.9900 C.3    74  LEU74       0.1596
     75  C          7.9390   51.1110   21.3570 C.2    74  LEU74       0.2287
     76  O          8.4590   51.9790   22.0330 O.2    74  LEU74      -0.2864
     77  CB         8.3070   48.7090   21.8370 C.3    74  LEU74       0.0297
     78  CG         7.8800   47.4340   22.5130 C.3    74  LEU74       0.0022
     79  CD1        8.9550   46.3650   22.2590 C.3    74  LEU74       0.0001
     80  CD2        7.7250   47.7090   23.9710 C.3    74  LEU74       0.0001
     81  N          6.2430   54.1900   22.4180 N.3    77  HIS77      -0.1241
     82  CA         6.7000   54.5250   23.7490 C.3    77  HIS77       0.1621
     83  C          8.1340   54.8740   23.7970 C.2    77  HIS77       0.2264
     84  O          8.7140   54.9990   24.8680 O.2    77  HIS77      -0.2867
     85  CB         6.4330   53.4170   24.7310 C.3    77  HIS77       0.0745
     86  CG         4.9830   53.2630   25.0440 C.ar   77  HIS77       0.0817
     87  ND1        4.1170   52.5850   24.2210 N.ar   77  HIS77      -0.2268
     88  CD2        4.2450   53.7270   26.0790 C.ar   77  HIS77       0.1154
     89  CE1        2.9050   52.6210   24.7400 C.ar   77  HIS77       0.1986
     90  NE2        2.9530   53.3030   25.8720 N.ar   77  HIS77      -0.2212
     91  N         10.7480   53.0820   23.0410 N.3    79  VAL79      -0.1245
     92  CA        11.6470   52.1400   23.6560 C.3    79  VAL79       0.1561
     93  C         12.5700   51.6470   22.5780 C.2    79  VAL79       0.2260
     94  O         12.1900   51.4610   21.4220 O.2    79  VAL79      -0.2867
     95  CB        10.9400   50.9510   24.3090 C.3    79  VAL79       0.0252
     96  CG1       11.9770   50.0380   24.9630 C.3    79  VAL79       0.0019
     97  CG2        9.9890   51.4350   25.3670 C.3    79  VAL79       0.0019
     98  N         15.2720   48.1740   26.0180 N.3   113  LEU113     -0.1245
     99  CA        14.7470   46.8910   26.4710 C.3   113  LEU113      0.1561
    100  C         15.5580   45.7630   25.7680 C.2   113  LEU113      0.2260
    101  O         15.5060   45.5800   24.5540 O.2   113  LEU113     -0.2867
    102  CB        13.2310   46.8140   26.1530 C.3   113  LEU113      0.0270
    103  CG        12.5680   45.4680   26.3650 C.3   113  LEU113      0.0019
    104  CD1       12.9020   44.9840   27.7820 C.3   113  LEU113      0.0001
    105  CD2       11.1060   45.5530   26.1590 C.3   113  LEU113      0.0001
    106  N         16.1730   41.8860   25.3810 N.3   115  ILE115     -0.1245
    107  CA        15.4890   40.6120   25.5480 C.3   115  ILE115      0.1561
    108  C         16.4770   39.4840   25.2970 C.2   115  ILE115      0.2260
    109  O         17.0250   39.3670   24.1820 O.2   115  ILE115     -0.2867
    110  CB        14.3360   40.4640   24.5210 C.3   115  ILE115      0.0252
    111  CG1       13.4390   41.7030   24.5290 C.3   115  ILE115      0.0019
    112  CG2       13.5590   39.1750   24.7980 C.3   115  ILE115      0.0019
    113  CD1       12.5630   41.8240   25.7380 C.3   115  ILE115      0.0001
@<TRIPOS>BOND
     1    53    54    1
     2    58    59    1
     3    55    56    2
     4    55    54    1
     5    67    68    1
     6    54    57    1
     7    60    59    1
     8    60    61    2
     9    59    62    1
    10    68    69    1
    11    68    71    1
    12    72    71    1
    13    62    63    1
    14    66    64   ar
    15    73    69   am
    16    73    74    1
    17    75    74    1
    18    75    76    2
    19    69    70    2
    20    94    93    2
    21    63    64    1
    22    64    65   ar
    23    77    74    1
    24    77    78    1
    25    79    78    1
    26    81    82    1
    27    78    80    1
    28    93    92    1
    29    91    92    1
    30    92    95    1
    31    82    83    1
    32    82    85    1
    33    83    84    2
    34   109   108    2
    35    87    89   ar
    36    87    86   ar
    37    95    96    1
    38    95    97    1
    39   110   111    1
    40   110   112    1
    41   110   107    1
    42   111   113    1
    43   101   100    2
    44    85    86    1
    45    89    90   ar
    46    86    88   ar
    47   108   107    1
    48   106   107    1
    49   100    99    1
    50    18    16    1
    51    90    88   ar
    52    98    99    1
    53    17    16    1
    54   102   103    1
    55   102    99    1
    56   105   103    1
    57   103   104    1
    58    16    15    2
    59    15    14    1
    60    14    13    1
    61    24    23    1
    62    48    47    2
    63    13    12    1
    64     6     5    1
    65    12     9    1
    66    25    23    1
    67    23    20    1
    68     9     8    1
    69     9    10    1
    70     5     7    1
    71     5     2    1
    72    49    46    1
    73    49    50    1
    74    51    50    1
    75    47    46    1
    76    45    46    1
    77     8     3   am
    78    36    33    1
    79    50    52    1
    80     3     4    2
    81     3     2    1
    82    11    10    2
    83    20    21    1
    84    20    19    1
    85     2     1    1
    86    31    30    1
    87    21    22    2
    88    21    26   am
    89    26    27    1
    90    33    34    1
    91    33    32    1
    92    27    30    1
    93    27    28    1
    94    44    42   am
    95    35    34    2
    96    34    37   am
    97    28    29    2
    98    37    38    1
    99    42    43    2
   100    42    41    1
   101    38    41    1
   102    38    39    1
   103    39    40    2
