@<TRIPOS>MOLECULE
tmp/2e9dA00.pdb
 137 132 0 0 0
SMALL
GASTEIGER

@<TRIPOS>ATOM
      1  N         34.1360   35.9940   52.7850 N.3    10  MET10      -0.1230
      2  CA        34.1480   36.2890   54.2060 C.3    10  MET10       0.1702
      3  C         34.0620   37.7800   54.4670 C.2    10  MET10       0.2592
      4  O         34.8400   38.5750   53.9260 O.2    10  MET10      -0.2718
      5  CB        35.4020   35.6730   54.8170 C.3    10  MET10       0.0401
      6  CG        35.4520   34.1580   54.7140 C.3    10  MET10       0.0596
      7  SD        37.1290   33.4600   54.9560 S.3    10  MET10      -0.1393
      8  CE        38.1190   34.6500   53.9060 C.3    10  MET10       0.0692
      9  N         33.1230   38.1890   55.3100 N.am   11  ASP11      -0.1960
     10  CA        32.9870   39.6250   55.5080 C.3    11  ASP11       0.1840
     11  C         32.2680   39.9570   56.8320 C.2    11  ASP11       0.2623
     12  O         31.3870   39.2110   57.2980 O.2    11  ASP11      -0.2715
     13  CB        32.2690   40.1540   54.2480 C.3    11  ASP11       0.1450
     14  CG        32.0820   41.6790   54.2190 C.2    11  ASP11       0.3671
     15  OD1       32.8630   42.4160   54.8740 O.co2  11  ASP11      -0.2456
     16  OD2       31.1560   42.1530   53.4940 O.co2  11  ASP11      -0.2456
     17  N         32.7020   41.0560   57.4540 N.am   12  GLY12      -0.1940
     18  CA        32.0950   41.5150   58.6840 C.3    12  GLY12       0.2014
     19  C         33.0300   41.6130   59.8750 C.2    12  GLY12       0.2639
     20  O         32.6140   41.9560   60.9950 O.2    12  GLY12      -0.2714
     21  N         34.2810   41.2950   59.6340 N.am   13  ASN13      -0.1958
     22  CA        35.2990   41.3510   60.6510 C.3    13  ASN13       0.1819
     23  C         35.4780   42.7120   61.2970 C.2    13  ASN13       0.2621
     24  O         35.5160   42.8320   62.5380 O.2    13  ASN13      -0.2715
     25  CB        36.6070   40.9550   60.0480 C.3    13  ASN13       0.1195
     26  CG        36.7480   39.4990   59.9390 C.2    13  ASN13       0.2630
     27  OD1       37.7440   39.0150   59.4370 O.2    13  ASN13      -0.2716
     28  ND2       35.7550   38.7680   60.4120 N.am   13  ASN13      -0.0877
     29  N         35.6420   43.7220   60.4480 N.am   14  GLY14      -0.1954
     30  CA        35.8140   45.0900   60.9330 C.3    14  GLY14       0.1869
     31  C         34.5740   45.4860   61.7080 C.2    14  GLY14       0.2309
     32  O         34.6710   45.9810   62.8290 O.2    14  GLY14      -0.2863
     33  N         40.3310   46.7150   64.6110 N.3    24  ARG24      -0.1245
     34  CA        40.4850   45.7330   63.5500 C.3    24  ARG24       0.1563
     35  C         41.3620   44.5380   63.8770 C.2    24  ARG24       0.2260
     36  O         40.9770   43.4230   63.5640 O.2    24  ARG24      -0.2867
     37  CB        40.9790   46.4190   62.2850 C.3    24  ARG24       0.0307
     38  CG        39.9750   47.5810   61.9060 C.3    24  ARG24       0.0489
     39  CD        39.4670   47.6170   60.3760 C.3    24  ARG24       0.2205
     40  NE        40.5440   47.6120   59.3540 N.pl3  24  ARG24      -0.0865
     41  CZ        40.6890   48.4810   58.3140 C.cat  24  ARG24       0.5346
     42  NH1       41.7300   48.4060   57.4660 N.pl3  24  ARG24       0.1354
     43  NH2       39.8570   49.5530   58.2310 N.pl3  24  ARG24       0.1354
     44  N         40.3250   40.5550   63.0160 N.3    28  HIS28      -0.1241
     45  CA        41.0520   39.6260   62.1450 C.3    28  HIS28       0.1621
     46  C         41.3340   38.3600   62.9390 C.2    28  HIS28       0.2264
     47  O         41.2180   37.2420   62.4320 O.2    28  HIS28      -0.2867
     48  CB        42.3620   40.2460   61.6340 C.3    28  HIS28       0.0745
     49  CG        42.1570   41.5240   60.8790 C.ar   28  HIS28       0.0817
     50  ND1       40.9460   41.8580   60.2980 N.ar   28  HIS28      -0.2268
     51  CD2       42.9910   42.5700   60.6360 C.ar   28  HIS28       0.1154
     52  CE1       41.0410   43.0530   59.7340 C.ar   28  HIS28       0.1986
     53  NE2       42.2700   43.5080   59.9210 N.ar   28  HIS28      -0.2212
     54  N         38.3800   36.4860   62.9960 N.3    31  GLY31      -0.1210
     55  CA        38.1130   36.0470   61.6360 C.3    31  GLY31       0.1956
     56  C         38.8710   34.7920   61.2630 C.2    31  GLY31       0.2611
     57  O         38.2980   33.8470   60.6680 O.2    31  GLY31      -0.2717
     58  N         40.1550   34.7890   61.6360 N.am   32  ALA32      -0.1979
     59  CA        41.0740   33.6790   61.3710 C.3    32  ALA32       0.1597
     60  C         40.6090   32.5200   62.2000 C.2    32  ALA32       0.2287
     61  O         40.6790   31.3800   61.7970 O.2    32  ALA32      -0.2864
     62  CB        42.5070   34.0480   61.7860 C.3    32  ALA32       0.0319
     63  N         38.0140   31.1060   60.3100 N.3    35  VAL35      -0.1245
     64  CA        38.4680   30.3850   59.1210 C.3    35  VAL35       0.1561
     65  C         38.7950   28.9200   59.4460 C.2    35  VAL35       0.2260
     66  O         38.5280   28.0430   58.6280 O.2    35  VAL35      -0.2867
     67  CB        39.7350   31.0060   58.5380 C.3    35  VAL35       0.0252
     68  CG1       40.2560   30.1350   57.4270 C.3    35  VAL35       0.0019
     69  CG2       39.4470   32.4680   58.0960 C.3    35  VAL35       0.0019
     70  N         38.6060   36.6820   51.2490 N.3    54  ALA54      -0.1231
     71  CA        38.4780   37.7310   52.2580 C.3    54  ALA54       0.1694
     72  C         38.1210   39.0450   51.5700 C.2    54  ALA54       0.2592
     73  O         38.9420   39.5940   50.8790 O.2    54  ALA54      -0.2718
     74  CB        39.8120   37.8750   53.0160 C.3    54  ALA54       0.0304
     75  N         36.9160   39.5660   51.7670 N.am   55  PHE55      -0.1962
     76  CA        36.4770   40.8310   51.1340 C.3    55  PHE55       0.1771
     77  C         36.8540   42.0310   51.9770 C.2    55  PHE55       0.2617
     78  O         36.6260   42.0510   53.2020 O.2    55  PHE55      -0.2715
     79  CB        34.9450   40.8300   50.9860 C.3    55  PHE55       0.0574
     80  CG        34.3800   42.0720   50.3260 C.ar   55  PHE55      -0.0200
     81  CD1       34.5660   42.3130   48.9600 C.ar   55  PHE55      -0.0042
     82  CD2       33.6470   42.9970   51.0680 C.ar   55  PHE55      -0.0042
     83  CE1       34.0220   43.4500   48.3620 C.ar   55  PHE55      -0.0003
     84  CE2       33.1070   44.1240   50.4710 C.ar   55  PHE55      -0.0003
     85  CZ        33.2950   44.3440   49.1230 C.ar   55  PHE55      -0.0000
     86  N         37.3730   43.0590   51.3290 N.am   56  SER56      -0.2003
     87  CA        37.7310   44.2830   52.0310 C.3    56  SER56       0.1610
     88  C         36.7250   45.3670   51.6000 C.3    56  SER56       0.2063
     89  O         36.7010   45.4950   50.3540 O.3    56  SER56      -0.2184
     90  CB        39.0910   44.7440   51.5540 C.3    56  SER56       0.2063
     91  OG        40.0240   44.8280   52.5960 O.3    56  SER56      -0.2184
     92  N         50.0850   44.1290   52.2690 N.3    63  LEU63      -0.1245
     93  CA        49.1490   43.2750   52.9850 C.3    63  LEU63       0.1561
     94  C         49.2200   41.8380   52.4890 C.2    63  LEU63       0.2260
     95  O         49.0840   40.8930   53.2760 O.2    63  LEU63      -0.2867
     96  CB        47.7350   43.8200   52.8300 C.3    63  LEU63       0.0270
     97  CG        47.6500   45.2480   53.3720 C.3    63  LEU63       0.0019
     98  CD1       46.2700   45.8290   53.1140 C.3    63  LEU63       0.0001
     99  CD2       47.9750   45.2440   54.8600 C.3    63  LEU63       0.0001
    100  N         52.1270   39.9810   54.1090 N.3    66  LEU66      -0.1231
    101  CA        51.8690   39.5480   55.4720 C.3    66  LEU66       0.1693
    102  C         51.1040   38.2440   55.3470 C.2    66  LEU66       0.2592
    103  O         51.3190   37.2890   56.0890 O.2    66  LEU66      -0.2718
    104  CB        51.0020   40.5850   56.1860 C.3    66  LEU66       0.0284
    105  CG        51.5370   42.0210   56.1570 C.3    66  LEU66       0.0019
    106  CD1       50.6110   42.9460   56.9420 C.3    66  LEU66       0.0001
    107  CD2       52.9380   42.0490   56.7570 C.3    66  LEU66       0.0001
    108  N         50.2010   38.2320   54.3810 N.am   67  PHE67      -0.1976
    109  CA        49.3680   37.0820   54.0890 C.3    67  PHE67       0.1639
    110  C         50.1800   35.8440   53.7520 C.2    67  PHE67       0.2290
    111  O         49.8860   34.7580   54.2410 O.2    67  PHE67      -0.2864
    112  CB        48.4710   37.4150   52.9190 C.3    67  PHE67       0.0560
    113  CG        47.8390   36.2260   52.2960 C.ar   67  PHE67      -0.0200
    114  CD1       46.7300   35.6260   52.8960 C.ar   67  PHE67      -0.0042
    115  CD2       48.3420   35.7000   51.1010 C.ar   67  PHE67      -0.0042
    116  CE1       46.1190   34.5130   52.3110 C.ar   67  PHE67      -0.0003
    117  CE2       47.7450   34.5930   50.5090 C.ar   67  PHE67      -0.0003
    118  CZ        46.6270   33.9950   51.1140 C.ar   67  PHE67      -0.0000
    119  N         52.1200   34.6670   56.8350 N.3    70  ALA70      -0.1245
    120  CA        51.2390   33.9520   57.7660 C.3    70  ALA70       0.1562
    121  C         50.8370   32.6120   57.1580 C.2    70  ALA70       0.2260
    122  O         50.5950   31.6200   57.8520 O.2    70  ALA70      -0.2867
    123  CB        49.9960   34.7830   58.0420 C.3    70  ALA70       0.0290
    124  N         31.3320   37.4320   59.6670 N.3   199  TRP199     -0.1241
    125  CA        32.3080   36.3470   59.6130 C.3   199  TRP199      0.1605
    126  C         32.8160   35.7700   60.9610 C.2   199  TRP199      0.2264
    127  O         32.6660   34.5550   61.2240 O.2   199  TRP199     -0.2867
    128  CB        33.4700   36.7420   58.7000 C.3   199  TRP199      0.0550
    129  CG        34.3480   35.5940   58.4530 C.ar  199  TRP199      0.0003
    130  CD1       35.6150   35.4510   58.9110 C.ar  199  TRP199      0.0946
    131  CD2       33.9600   34.3060   57.9300 C.ar  199  TRP199      0.0152
    132  NE1       36.0430   34.1810   58.7440 N.ar  199  TRP199     -0.2442
    133  CE2       35.0590   33.4360   58.1450 C.ar  199  TRP199      0.0810
    134  CE3       32.7930   33.8030   57.3200 C.ar  199  TRP199      0.0012
    135  CZ2       35.0380   32.0640   57.7740 C.ar  199  TRP199      0.0191
    136  CZ3       32.7570   32.4300   56.9450 C.ar  199  TRP199      0.0001
    137  CH2       33.8840   31.5750   57.1810 C.ar  199  TRP199      0.0015
@<TRIPOS>BOND
     1    83    81   ar
     2    83    85   ar
     3    81    80   ar
     4    85    84   ar
     5    80    79    1
     6    80    82   ar
     7    89    88    1
     8    84    82   ar
     9   117   115   ar
    10   117   118   ar
    11    73    72    2
    12    79    76    1
    13   115   113   ar
    14   118   116   ar
    15    76    75    1
    16    76    77    1
    17    70    71    1
    18    86    77   am
    19    86    87    1
    20    90    87    1
    21    90    91    1
    22    72    75   am
    23    72    71    1
    24    88    87    1
    25    77    78    2
    26    71    74    1
    27    92    93    1
    28   113   114   ar
    29   113   112    1
    30   116   114   ar
    31    94    93    1
    32    94    95    2
    33     1     2    1
    34    96    93    1
    35    96    97    1
    36   112   109    1
    37    98    97    1
    38    97    99    1
    39    16    14   ar
    40   110   109    1
    41   110   111    2
    42     8     7    1
    43     4     3    2
    44   109   108    1
    45   100   101    1
    46     2     3    1
    47     2     5    1
    48    14    13    1
    49    14    15   ar
    50    13    10    1
    51   108   102   am
    52     3     9   am
    53     6     5    1
    54     6     7    1
    55     9    10    1
    56   102   101    1
    57   102   103    2
    58   101   104    1
    59    10    11    1
    60   105   104    1
    61   105   107    1
    62   105   106    1
    63    11    12    2
    64    11    17   am
    65   119   120    1
    66   136   137   ar
    67   136   134   ar
    68   121   120    1
    69   121   122    2
    70   137   135   ar
    71   134   131   ar
    72    68    67    1
    73    17    18    1
    74    42    41    1
    75   120   123    1
    76   135   133   ar
    77   131   133   ar
    78   131   129   ar
    79    69    67    1
    80   133   132   ar
    81    43    41    1
    82    41    40    2
    83   129   128    1
    84   129   130   ar
    85    67    64    1
    86    66    65    2
    87    18    19    1
    88   128   125    1
    89   132   130   ar
    90    64    65    1
    91    64    63    1
    92    40    39    1
    93    27    26    2
    94   125   124    1
    95   125   126    1
    96    21    19   am
    97    21    22    1
    98    52    53   ar
    99    52    50   ar
   100    19    20    2
   101    53    51   ar
   102    26    25    1
   103    26    28   am
   104    25    22    1
   105    50    49   ar
   106    39    38    1
   107    29    30    1
   108    29    23   am
   109    51    49   ar
   110    22    23    1
   111    57    56    2
   112    49    48    1
   113    30    31    1
   114   126   127    2
   115    56    58   am
   116    56    55    1
   117    23    24    2
   118    59    58    1
   119    59    62    1
   120    59    60    1
   121    48    45    1
   122    55    54    1
   123    31    32    2
   124    61    60    2
   125    38    37    1
   126    45    46    1
   127    45    44    1
   128    37    34    1
   129    47    46    2
   130    34    35    1
   131    34    33    1
   132    36    35    2
