@<TRIPOS>MOLECULE
tmp/2e9fB00.pdb
 122 113 0 0 0
SMALL
GASTEIGER

@<TRIPOS>ATOM
      1  N          9.5510   29.7570   23.4470 N.3    12  SER12      -0.1217
      2  CA         8.5060   30.1010   24.3870 C.3    12  SER12       0.1889
      3  C          8.1160   28.8570   25.1730 C.2    12  SER12       0.2288
      4  O          7.3450   28.9270   26.1290 O.2    12  SER12      -0.2866
      5  CB         7.2920   30.6810   23.6490 C.3    12  SER12       0.2089
      6  OG         6.8790   29.8650   22.5590 O.3    12  SER12      -0.2183
      7  N          5.1150   28.5160   27.7110 N.3    16  ASP16      -0.1239
      8  CA         3.8620   28.1410   27.0500 C.3    16  ASP16       0.1674
      9  C          3.4060   26.6940   27.2970 C.2    16  ASP16       0.2266
     10  O          2.2780   26.3250   26.9470 O.2    16  ASP16      -0.2867
     11  CB         3.9240   28.4180   25.5310 C.3    16  ASP16       0.1410
     12  CG         4.9490   27.5570   24.8020 C.2    16  ASP16       0.3668
     13  OD1        5.1810   26.3980   25.2070 O.co2  16  ASP16      -0.2456
     14  OD2        5.5070   28.0360   23.7930 O.co2  16  ASP16      -0.2456
     15  N          8.1680   25.6730   20.6980 N.3    72  ASP72      -0.1239
     16  CA         6.9950   25.8800   21.5470 C.3    72  ASP72       0.1674
     17  C          6.1840   24.6200   21.8060 C.2    72  ASP72       0.2266
     18  O          6.4680   23.5600   21.2480 O.2    72  ASP72      -0.2867
     19  CB         6.0770   26.9520   20.9510 C.3    72  ASP72       0.1410
     20  CG         5.7160   26.6790   19.5010 C.2    72  ASP72       0.3668
     21  OD1        5.4280   25.5120   19.1790 O.co2  72  ASP72      -0.2456
     22  OD2        5.7060   27.6370   18.6900 O.co2  72  ASP72      -0.2456
     23  N          3.2630   23.9690   20.8550 N.3    74  HIS74      -0.1241
     24  CA         2.5750   23.5780   19.6370 C.3    74  HIS74       0.1621
     25  C          3.3240   22.5450   18.8310 C.2    74  HIS74       0.2264
     26  O          2.8110   21.4450   18.6220 O.2    74  HIS74      -0.2867
     27  CB         2.3010   24.8140   18.8030 C.3    74  HIS74       0.0745
     28  CG         1.5250   25.8460   19.5470 C.ar   74  HIS74       0.0817
     29  ND1        1.9560   27.1460   19.6860 N.ar   74  HIS74      -0.2268
     30  CD2        0.3690   25.7520   20.2430 C.ar   74  HIS74       0.1154
     31  CE1        1.0990   27.8110   20.4370 C.ar   74  HIS74       0.1986
     32  NE2        0.1270   26.9880   20.7880 N.ar   74  HIS74      -0.2212
     33  N         -2.8230   27.9870   11.5730 N.3    97  SER97      -0.1202
     34  CA        -1.5950   28.7310   11.7350 C.3    97  SER97       0.2020
     35  C         -1.3300   28.7950   13.2320 C.2    97  SER97       0.2619
     36  O         -2.2240   28.5300   14.0410 O.2    97  SER97      -0.2717
     37  CB        -1.7810   30.1470   11.1860 C.3    97  SER97       0.2103
     38  OG        -0.6800   30.9820   11.5010 O.3    97  SER97      -0.2182
     39  N         -0.1050   29.1250   13.6100 N.am   98  ARG98      -0.1965
     40  CA         0.1890   29.2490   15.0180 C.3    98  ARG98       0.1729
     41  C         -0.6020   30.4530   15.5400 C.2    98  ARG98       0.2616
     42  O         -1.1000   30.4500   16.6620 O.2    98  ARG98      -0.2715
     43  CB         1.6820   29.4670   15.2250 C.3    98  ARG98       0.0348
     44  CG         2.5410   28.3290   14.7290 C.3    98  ARG98       0.0492
     45  CD         2.0170   26.9710   15.1740 C.3    98  ARG98       0.2205
     46  NE         2.9780   25.9030   14.9080 N.pl3  98  ARG98      -0.0865
     47  CZ         2.6760   24.6050   14.9280 C.cat  98  ARG98       0.5346
     48  NH1        1.4320   24.2180   15.1980 N.pl3  98  ARG98       0.1354
     49  NH2        3.6150   23.6900   14.6880 N.pl3  98  ARG98       0.1354
     50  N         -0.7370   31.4620   14.6880 N.am   99  ASN99      -0.1972
     51  CA        -1.4360   32.6910   15.0180 C.3    99  ASN99       0.1688
     52  C         -2.8090   32.4870   15.6290 C.2    99  ASN99       0.2292
     53  O         -3.0790   32.9330   16.7500 O.2    99  ASN99      -0.2864
     54  CB        -1.5470   33.5500   13.7650 C.3    99  ASN99       0.1181
     55  CG        -0.2020   33.7790   13.1120 C.2    99  ASN99       0.2629
     56  OD1        0.8310   33.3760   13.6540 O.2    99  ASN99      -0.2716
     57  ND2       -0.2010   34.4270   11.9480 N.am   99  ASN99      -0.0877
     58  N         -2.4420   30.0780   18.7880 N.3   102  VAL102     -0.1245
     59  CA        -2.0090   30.6510   20.0600 C.3   102  VAL102      0.1561
     60  C         -3.1350   31.3990   20.7560 C.2   102  VAL102      0.2260
     61  O         -3.4450   31.1300   21.9100 O.2   102  VAL102     -0.2867
     62  CB        -0.8210   31.6280   19.8880 C.3   102  VAL102      0.0252
     63  CG1       -0.3470   32.1050   21.2430 C.3   102  VAL102      0.0019
     64  CG2        0.3250   30.9440   19.1800 C.3   102  VAL102      0.0019
     65  N         -5.1400   41.2760   21.8540 N.3   223  ARG223     -0.1245
     66  CA        -4.6440   40.8560   23.1470 C.3   223  ARG223      0.1563
     67  C         -5.2810   41.7620   24.1910 C.2   223  ARG223      0.2260
     68  O         -4.9870   41.6520   25.3710 O.2   223  ARG223     -0.2867
     69  CB        -3.1150   40.9530   23.2300 C.3   223  ARG223      0.0307
     70  CG        -2.3530   39.9400   22.3750 C.3   223  ARG223      0.0489
     71  CD        -2.7420   38.4880   22.6570 C.3   223  ARG223      0.2205
     72  NE        -2.7780   37.7470   21.4010 N.pl3 223  ARG223     -0.0865
     73  CZ        -1.7980   36.9760   20.9450 C.cat 223  ARG223      0.5346
     74  NH1       -0.6820   36.8190   21.6480 N.pl3 223  ARG223      0.1354
     75  NH2       -1.9270   36.3800   19.7650 N.pl3 223  ARG223      0.1354
     76  N         -0.4530   39.4350   13.3460 N.3   308  TYR308     -0.1241
     77  CA         0.5350   38.8160   14.1970 C.3   308  TYR308      0.1605
     78  C          1.8690   39.5280   14.0980 C.2   308  TYR308      0.2264
     79  O          2.2410   40.0380   13.0500 O.2   308  TYR308     -0.2867
     80  CB         0.7370   37.3410   13.8360 C.3   308  TYR308      0.0534
     81  CG         1.5850   36.6210   14.8590 C.ar  308  TYR308     -0.0201
     82  CD1        1.0500   36.2760   16.0980 C.ar  308  TYR308     -0.0009
     83  CD2        2.9530   36.4320   14.6560 C.ar  308  TYR308     -0.0009
     84  CE1        1.8460   35.7830   17.1140 C.ar  308  TYR308      0.0417
     85  CE2        3.7620   35.9390   15.6720 C.ar  308  TYR308      0.0417
     86  CZ         3.2000   35.6260   16.9070 C.ar  308  TYR308      0.1957
     87  OH         3.9890   35.2490   17.9750 O.3   308  TYR308     -0.2866
     88  N          5.8070   39.0550   16.4520 N.3   310  LYS310     -0.1245
     89  CA         6.4300   38.2410   17.4940 C.3   310  LYS310      0.1561
     90  C          6.3400   38.9250   18.8520 C.2   310  LYS310      0.2260
     91  O          6.3680   38.2600   19.8770 O.2   310  LYS310     -0.2867
     92  CB         7.8950   37.9590   17.1670 C.3   310  LYS310      0.0271
     93  CG         8.4820   36.8190   17.9650 C.3   310  LYS310      0.0035
     94  CD         7.9040   35.4950   17.5010 C.3   310  LYS310      0.0206
     95  CE         8.6400   34.3340   18.1300 C.3   310  LYS310      0.1093
     96  NZ         8.4310   33.0900   17.3420 N.3   310  LYS310     -0.1314
     97  N          4.0100   39.9210   20.2740 N.3   312  LEU312     -0.1231
     98  CA         2.8440   39.2870   20.8860 C.3   312  LEU312      0.1693
     99  C          3.1190   38.1130   21.8190 C.2   312  LEU312      0.2591
    100  O          2.2650   37.7420   22.6200 O.2   312  LEU312     -0.2718
    101  CB         1.8780   38.8410   19.7790 C.3   312  LEU312      0.0284
    102  CG         0.5930   39.6570   19.6070 C.3   312  LEU312      0.0019
    103  CD1        0.8730   41.1240   19.8900 C.3   312  LEU312      0.0001
    104  CD2        0.0330   39.4520   18.2070 C.3   312  LEU312      0.0001
    105  N          4.3020   37.5260   21.7150 N.am  313  GLN313     -0.1979
    106  CA         4.6430   36.3900   22.5600 C.3   313  GLN313      0.1601
    107  C          4.9170   36.8360   23.9870 C.2   313  GLN313      0.2287
    108  O          4.8790   36.0270   24.9130 O.2   313  GLN313     -0.2864
    109  CB         5.8610   35.6710   22.0020 C.3   313  GLN313      0.0394
    110  CG         6.1790   34.3950   22.7180 C.3   313  GLN313      0.0908
    111  CD         7.1610   33.5530   21.9390 C.2   313  GLN313      0.2608
    112  OE1        8.3630   33.8410   21.9050 O.2   313  GLN313     -0.2717
    113  NE2        6.6490   32.5100   21.2810 N.am  313  GLN313     -0.0878
    114  N          2.1530   36.0310   27.3520 N.3   316  LYS316     -0.1245
    115  CA         1.9610   34.8800   28.2430 C.3   316  LYS316      0.1561
    116  C          2.6390   34.9460   29.6050 C.2   316  LYS316      0.2260
    117  O          2.0050   34.7150   30.6430 O.2   316  LYS316     -0.2867
    118  CB         2.4050   33.6060   27.5170 C.3   316  LYS316      0.0271
    119  CG         1.6530   33.3810   26.2130 C.3   316  LYS316      0.0035
    120  CD         2.3660   32.4080   25.3030 C.3   316  LYS316      0.0206
    121  CE         1.6510   32.3050   23.9720 C.3   316  LYS316      0.1093
    122  NZ         1.5230   33.6210   23.2950 N.3   316  LYS316     -0.1314
@<TRIPOS>BOND
     1    37    38    1
     2    37    34    1
     3    33    34    1
     4    34    35    1
     5    57    55   am
     6    79    78    2
     7    55    56    2
     8    55    54    1
     9    35    39   am
    10    35    36    2
    11    76    77    1
    12    39    40    1
    13    54    51    1
    14    80    77    1
    15    80    81    1
    16    78    77    1
    17    83    81   ar
    18    83    85   ar
    19    50    51    1
    20    50    41   am
    21    49    47    1
    22    44    45    1
    23    44    43    1
    24    81    82   ar
    25    46    47    2
    26    46    45    1
    27    47    48    1
    28    51    52    1
    29    40    43    1
    30    40    41    1
    31    41    42    2
    32    52    53    2
    33    85    86   ar
    34    82    84   ar
    35    88    89    1
    36    86    84   ar
    37    86    87    1
    38    92    89    1
    39    92    93    1
    40    96    95    1
    41    89    90    1
    42    94    93    1
    43    94    95    1
    44   104   102    1
    45    26    25    2
    46    22    20   ar
    47    58    59    1
    48    27    28    1
    49    27    24    1
    50    25    24    1
    51    90    91    2
    52    21    20   ar
    53    64    62    1
    54    20    19    1
    55    28    29   ar
    56    28    30   ar
    57   102   101    1
    58   102   103    1
    59    24    23    1
    60    29    31   ar
    61    75    73    1
    62   101    98    1
    63    62    59    1
    64    62    63    1
    65    59    60    1
    66    30    32   ar
    67    97    98    1
    68    31    32   ar
    69    15    16    1
    70    60    61    2
    71    98    99    1
    72    73    72    2
    73    73    74    1
    74    19    16    1
    75    18    17    2
    76   113   111   am
    77    72    71    1
    78    16    17    1
    79   105    99   am
    80   105   106    1
    81    99   100    2
    82    65    66    1
    83   112   111    2
    84   111   110    1
    85   109   106    1
    86   109   110    1
    87    70    71    1
    88    70    69    1
    89     6     5    1
    90   106   107    1
    91    66    69    1
    92    66    67    1
    93   122   121    1
    94     1     2    1
    95     5     2    1
    96    14    12   ar
    97   121   120    1
    98   107   108    2
    99    67    68    2
   100     2     3    1
   101    12    13   ar
   102    12    11    1
   103     3     4    2
   104   120   119    1
   105    11     8    1
   106   119   118    1
   107    10     9    2
   108     8     9    1
   109     8     7    1
   110   114   115    1
   111   118   115    1
   112   115   116    1
   113   116   117    2
