@<TRIPOS>MOLECULE
tmp/2e9nA00.pdb
 164 154 0 0 0
SMALL
GASTEIGER

@<TRIPOS>ATOM
      1  N         -2.5640    3.8560  -23.0640 N.3    14  LEU14      -0.1231
      2  CA        -2.0890    4.8470  -22.1040 C.3    14  LEU14       0.1693
      3  C         -1.7210    4.2070  -20.7690 C.2    14  LEU14       0.2592
      4  O         -0.6550    4.4750  -20.2130 O.2    14  LEU14      -0.2718
      5  CB        -3.1610    5.9100  -21.8730 C.3    14  LEU14       0.0284
      6  CG        -3.3990    6.9150  -22.9960 C.3    14  LEU14       0.0019
      7  CD1       -4.6700    7.6980  -22.7250 C.3    14  LEU14       0.0001
      8  CD2       -2.1990    7.8420  -23.0960 C.3    14  LEU14       0.0001
      9  N         -2.6110    3.3660  -20.2580 N.am   15  GLY15      -0.1957
     10  CA        -2.3580    2.7060  -18.9920 C.3    15  GLY15       0.1869
     11  C         -3.5070    1.8000  -18.6020 C.2    15  GLY15       0.2309
     12  O         -4.5870    2.2700  -18.2480 O.2    15  GLY15      -0.2863
     13  N        -10.0510   -1.9410  -14.3980 N.3    19  TYR19      -0.1241
     14  CA       -11.1660   -1.5420  -15.2620 C.3    19  TYR19       0.1605
     15  C        -11.0600   -2.1100  -16.6850 C.2    19  TYR19       0.2264
     16  O        -11.9950   -2.7250  -17.2080 O.2    19  TYR19      -0.2867
     17  CB       -11.2260   -0.0130  -15.3430 C.3    19  TYR19       0.0534
     18  CG        -9.8760    0.6380  -15.5900 C.ar   19  TYR19      -0.0201
     19  CD1       -8.9220    0.7090  -14.5800 C.ar   19  TYR19      -0.0009
     20  CD2       -9.5570    1.1850  -16.8300 C.ar   19  TYR19      -0.0009
     21  CE1       -7.6930    1.3110  -14.7950 C.ar   19  TYR19       0.0417
     22  CE2       -8.3280    1.7890  -17.0570 C.ar   19  TYR19       0.0417
     23  CZ        -7.3980    1.8530  -16.0330 C.ar   19  TYR19       0.1957
     24  OH        -6.1840    2.4820  -16.2280 O.3    19  TYR19      -0.2866
     25  N         -6.9140    2.2320  -21.2850 N.3    22  VAL22      -0.1245
     26  CA        -7.1410    3.6140  -21.6750 C.3    22  VAL22       0.1561
     27  C         -6.2120    3.8960  -22.8500 C.2    22  VAL22       0.2260
     28  O         -4.9980    3.9710  -22.6800 O.2    22  VAL22      -0.2867
     29  CB        -6.8120    4.5800  -20.5220 C.3    22  VAL22       0.0252
     30  CG1       -7.1200    6.0060  -20.9380 C.3    22  VAL22       0.0019
     31  CG2       -7.6140    4.2060  -19.2900 C.3    22  VAL22       0.0019
     32  N         -7.8100   11.1090  -24.6500 N.3    35  ALA35      -0.1245
     33  CA        -7.6670    9.8740  -23.9000 C.3    35  ALA35       0.1562
     34  C         -9.0240    9.1980  -23.7770 C.2    35  ALA35       0.2260
     35  O         -9.9970    9.8010  -23.3250 O.2    35  ALA35      -0.2867
     36  CB        -7.0920   10.1660  -22.5250 C.3    35  ALA35       0.0290
     37  N        -11.1600    5.9390  -22.2570 N.3    37  LYS37      -0.1245
     38  CA       -11.2080    4.8500  -21.2990 C.3    37  LYS37       0.1561
     39  C        -12.2470    3.8460  -21.7630 C.2    37  LYS37       0.2260
     40  O        -13.2950    4.2200  -22.2920 O.2    37  LYS37      -0.2867
     41  CB       -11.5690    5.3840  -19.9080 C.3    37  LYS37       0.0271
     42  CG       -11.5610    4.3330  -18.8000 C.3    37  LYS37       0.0035
     43  CD       -11.5190    4.9860  -17.4170 C.3    37  LYS37       0.0206
     44  CE       -11.2760    3.9550  -16.3260 C.3    37  LYS37       0.1093
     45  NZ       -10.8250    4.5670  -15.0420 N.3    37  LYS37      -0.1314
     46  N        -19.6590    7.6280  -11.9720 N.3    54  GLU54      -0.1245
     47  CA       -18.4180    8.2070  -12.4660 C.3    54  GLU54       0.1567
     48  C        -18.6740    9.1650  -13.6150 C.2    54  GLU54       0.2260
     49  O        -17.9640   10.1500  -13.7710 O.2    54  GLU54      -0.2867
     50  CB       -17.4590    7.1070  -12.9340 C.3    54  GLU54       0.0388
     51  CG       -16.2740    7.6260  -13.7530 C.3    54  GLU54       0.1160
     52  CD       -15.1760    6.5820  -13.9820 C.2    54  GLU54       0.3649
     53  OE1      -14.2450    6.8520  -14.7660 O.co2  54  GLU54      -0.2457
     54  OE2      -15.2290    5.4950  -13.3770 O.co2  54  GLU54      -0.2457
     55  N        -18.4080   13.4360  -13.6390 N.3    58  ASN58      -0.1240
     56  CA       -17.5830   14.1070  -14.6330 C.3    58  ASN58       0.1653
     57  C        -18.3500   15.2300  -15.3280 C.2    58  ASN58       0.2266
     58  O        -17.7870   16.2800  -15.6320 O.2    58  ASN58      -0.2867
     59  CB       -17.0680   13.0940  -15.6610 C.3    58  ASN58       0.1155
     60  CG       -15.7630   12.4280  -15.2280 C.2    58  ASN58       0.2627
     61  OD1      -14.7130   13.0710  -15.1710 O.2    58  ASN58      -0.2716
     62  ND2      -15.8260   11.1400  -14.9190 N.am   58  ASN58      -0.0877
     63  N         -8.8420   16.7630  -14.8730 N.3    67  VAL67      -0.1245
     64  CA        -8.9040   16.2510  -16.2330 C.3    67  VAL67       0.1561
     65  C        -10.2360   16.6610  -16.8390 C.2    67  VAL67       0.2260
     66  O        -11.2740   16.5830  -16.1840 O.2    67  VAL67      -0.2867
     67  CB        -8.7570   14.7300  -16.2480 C.3    67  VAL67       0.0252
     68  CG1       -9.0940   14.1810  -17.6290 C.3    67  VAL67       0.0019
     69  CG2       -7.3330   14.3690  -15.8680 C.3    67  VAL67       0.0019
     70  N        -11.8520   11.7280  -22.2350 N.3    83  LEU83      -0.1231
     71  CA       -11.2520   12.6600  -21.2920 C.3    83  LEU83       0.1693
     72  C        -10.0180   13.3310  -21.8680 C.2    83  LEU83       0.2592
     73  O         -9.4200   12.8370  -22.8190 O.2    83  LEU83      -0.2718
     74  CB       -10.8800   11.9020  -20.0210 C.3    83  LEU83       0.0284
     75  CG       -12.0530   11.0780  -19.4900 C.3    83  LEU83       0.0019
     76  CD1      -11.5810    9.6940  -19.0970 C.3    83  LEU83       0.0001
     77  CD2      -12.7060   11.8130  -18.3290 C.3    83  LEU83       0.0001
     78  N         -9.6360   14.4550  -21.2760 N.am   84  GLU84      -0.1966
     79  CA        -8.4740   15.2050  -21.7310 C.3    84  GLU84       0.1733
     80  C         -7.2200   14.3500  -21.7540 C.2    84  GLU84       0.2616
     81  O         -7.0300   13.4860  -20.9010 O.2    84  GLU84      -0.2715
     82  CB        -8.2210   16.4120  -20.8200 C.3    84  GLU84       0.0429
     83  CG        -7.1180   17.3310  -21.3270 C.3    84  GLU84       0.1163
     84  CD        -6.5860   18.2730  -20.2620 C.2    84  GLU84       0.3649
     85  OE1       -7.3840   19.0250  -19.6570 O.co2  84  GLU84      -0.2457
     86  OE2       -5.3590   18.2610  -20.0350 O.co2  84  GLU84      -0.2457
     87  N         -6.3620   14.5890  -22.7350 N.am   85  TYR85      -0.1960
     88  CA        -5.1170   13.8480  -22.8100 C.3    85  TYR85       0.1771
     89  C         -4.0470   14.6490  -22.0830 C.2    85  TYR85       0.2620
     90  O         -3.9910   15.8740  -22.2100 O.2    85  TYR85      -0.2715
     91  CB        -4.6780   13.6370  -24.2560 C.3    85  TYR85       0.0574
     92  CG        -3.2850   13.0610  -24.3340 C.ar   85  TYR85      -0.0198
     93  CD1       -2.9800   11.8630  -23.7040 C.ar   85  TYR85      -0.0009
     94  CD2       -2.2670   13.7320  -24.9940 C.ar   85  TYR85      -0.0009
     95  CE1       -1.6960   11.3470  -23.7250 C.ar   85  TYR85       0.0417
     96  CE2       -0.9750   13.2240  -25.0220 C.ar   85  TYR85       0.0417
     97  CZ        -0.6970   12.0300  -24.3820 C.ar   85  TYR85       0.1957
     98  OH         0.5850   11.5210  -24.3830 O.3    85  TYR85      -0.2866
     99  N         -3.2020   13.9620  -21.3210 N.am   86  CYS86      -0.1954
    100  CA        -2.1380   14.6270  -20.5780 C.3    86  CYS86       0.1843
    101  C         -0.7850   14.0600  -21.0080 C.2    86  CYS86       0.2626
    102  O         -0.3240   13.0470  -20.4900 O.2    86  CYS86      -0.2714
    103  CB        -2.3460   14.4350  -19.0630 C.3    86  CYS86       0.0997
    104  SG        -3.9220   15.0860  -18.3750 S.3    86  CYS86      -0.0797
    105  N         -0.1550   14.7220  -21.9680 N.am   87  SER87      -0.1950
    106  CA         1.1380   14.2850  -22.4810 C.3    87  SER87       0.1924
    107  C          2.2190   14.3580  -21.4100 C.2    87  SER87       0.2314
    108  O          3.2800   13.7380  -21.5380 O.2    87  SER87      -0.2863
    109  CB         1.5500   15.1640  -23.6590 C.3    87  SER87       0.2116
    110  OG         1.8270   16.4830  -23.2180 O.3    87  SER87      -0.2180
    111  N          2.2390   13.1400  -18.3980 N.3    89  GLY89      -0.1210
    112  CA         2.4770   11.8790  -17.7200 C.3    89  GLY89       0.1956
    113  C          1.9590   11.9330  -16.3020 C.2    89  GLY89       0.2611
    114  O          1.1800   12.8130  -15.9660 O.2    89  GLY89      -0.2717
    115  N          2.3860   11.0010  -15.4620 N.am   90  GLU90      -0.1979
    116  CA         1.9410   10.9850  -14.0750 C.3    90  GLU90       0.1602
    117  C          2.9330   11.7090  -13.1730 C.2    90  GLU90       0.2287
    118  O          4.1330   11.7240  -13.4330 O.2    90  GLU90      -0.2864
    119  CB         1.7630    9.5450  -13.5920 C.3    90  GLU90       0.0415
    120  CG         0.9360    8.6850  -14.5300 C.3    90  GLU90       0.1163
    121  CD         0.5780    7.3330  -13.9430 C.2    90  GLU90       0.3649
    122  OE1        1.3970    6.7830  -13.1760 O.co2  90  GLU90      -0.2457
    123  OE2       -0.5200    6.8190  -14.2640 O.co2  90  GLU90      -0.2457
    124  N          5.7900    9.6590  -11.9070 N.3    93  ASP93      -0.1239
    125  CA         7.0250    9.5220  -12.6690 C.3    93  ASP93       0.1674
    126  C          7.9270   10.7380  -12.6720 C.2    93  ASP93       0.2266
    127  O          8.8970   10.7780  -13.4210 O.2    93  ASP93      -0.2867
    128  CB         6.7100    9.0920  -14.1030 C.3    93  ASP93       0.1410
    129  CG         6.3100    7.6290  -14.1880 C.2    93  ASP93       0.3668
    130  OD1        5.4750    7.2650  -15.0470 O.co2  93  ASP93      -0.2456
    131  OD2        6.8470    6.8350  -13.3890 O.co2  93  ASP93      -0.2456
    132  N         -2.1540   13.8820  -12.9210 N.3   136  LEU136     -0.1245
    133  CA        -1.4960   13.9800  -14.2080 C.3   136  LEU136      0.1561
    134  C         -0.9400   15.3580  -14.5200 C.2   136  LEU136      0.2260
    135  O         -1.2380   16.3360  -13.8490 O.2   136  LEU136     -0.2867
    136  CB        -2.4560   13.5390  -15.3130 C.3   136  LEU136      0.0270
    137  CG        -3.0080   12.1300  -15.0780 C.3   136  LEU136      0.0019
    138  CD1       -3.8180   11.7090  -16.2750 C.3   136  LEU136      0.0001
    139  CD2       -1.8710   11.1560  -14.8380 C.3   136  LEU136      0.0001
    140  N         -7.2320   13.2900  -11.6620 N.3   146  SER146     -0.1202
    141  CA        -7.9190   12.3920  -12.5810 C.3   146  SER146      0.2020
    142  C         -8.3830   11.0960  -11.9410 C.2   146  SER146      0.2619
    143  O         -7.8170   10.6510  -10.9470 O.2   146  SER146     -0.2717
    144  CB        -7.0170   12.0570  -13.7740 C.3   146  SER146      0.2103
    145  OG        -6.3320   10.8270  -13.5890 O.3   146  SER146     -0.2182
    146  N         -9.4090   10.4960  -12.5420 N.am  147  ASP147     -0.1959
    147  CA       -10.0050    9.2380  -12.0950 C.3   147  ASP147      0.1840
    148  C        -11.0430    9.4330  -10.9960 C.2   147  ASP147      0.2622
    149  O        -10.7290    9.4100   -9.8040 O.2   147  ASP147     -0.2715
    150  CB        -8.9350    8.2420  -11.6330 C.3   147  ASP147      0.1450
    151  CG        -9.4610    6.8060  -11.5860 C.2   147  ASP147      0.3671
    152  OD1       -8.6560    5.8680  -11.3680 O.co2 147  ASP147     -0.2456
    153  OD2      -10.6850    6.6170  -11.7710 O.co2 147  ASP147     -0.2456
    154  N        -12.2930    9.6200  -11.4070 N.am  148  PHE148     -0.1974
    155  CA       -13.3670    9.8290  -10.4590 C.3   148  PHE148      0.1639
    156  C        -14.2650    8.6140  -10.3200 C.2   148  PHE148      0.2290
    157  O        -15.4440    8.7270   -9.9740 O.2   148  PHE148     -0.2864
    158  CB       -14.1660   11.0650  -10.8640 C.3   148  PHE148      0.0560
    159  CG       -13.3550   12.3200  -10.8330 C.ar  148  PHE148     -0.0200
    160  CD1      -12.5220   12.6480  -11.8890 C.ar  148  PHE148     -0.0042
    161  CD2      -13.3520   13.1280   -9.7040 C.ar  148  PHE148     -0.0042
    162  CE1      -11.7030   13.7480  -11.8160 C.ar  148  PHE148     -0.0003
    163  CE2      -12.5260   14.2340   -9.6320 C.ar  148  PHE148     -0.0003
    164  CZ       -11.7040   14.5400  -10.6840 C.ar  148  PHE148     -0.0000
@<TRIPOS>BOND
     1    96    94   ar
     2    96    97   ar
     3    94    92   ar
     4    32    33    1
     5    98    97    1
     6    97    95   ar
     7    92    91    1
     8    92    93   ar
     9    91    88    1
    10    33    34    1
    11    33    36    1
    12    34    35    2
    13    95    93   ar
    14   109   110    1
    15   109   106    1
    16     8     6    1
    17     1     2    1
    18     6     7    1
    19     6     5    1
    20    27    28    2
    21    27    26    1
    22    73    72    2
    23    88    87    1
    24    88    89    1
    25    87    80   am
    26   106   105    1
    27   106   107    1
    28    40    39    2
    29    37    38    1
    30    70    71    1
    31    90    89    2
    32     2     5    1
    33     2     3    1
    34    89    99   am
    35   105   101   am
    36    72    71    1
    37    72    78   am
    38    39    38    1
    39    80    79    1
    40    80    81    2
    41    79    78    1
    42    79    82    1
    43    26    25    1
    44    26    29    1
    45   108   107    2
    46    83    82    1
    47    83    84    1
    48    99   100    1
    49    38    41    1
    50    71    74    1
    51   101   100    1
    52   101   102    2
    53    30    29    1
    54     3     9   am
    55     3     4    2
    56   100   103    1
    57    29    31    1
    58    84    86   ar
    59    84    85   ar
    60     9    10    1
    61    74    75    1
    62    41    42    1
    63    75    76    1
    64    75    77    1
    65   103   104    1
    66    10    11    1
    67    42    43    1
    68    11    12    2
    69   111   112    1
    70   112   113    1
    71    68    67    1
    72    43    44    1
    73    16    15    2
    74    22    20   ar
    75    22    23   ar
    76    65    64    1
    77    65    66    2
    78    20    18   ar
    79    15    14    1
    80    44    45    1
    81   113   114    2
    82   113   115   am
    83   138   137    1
    84    67    64    1
    85    67    69    1
    86    64    63    1
    87    24    23    1
    88    23    21   ar
    89    59    60    1
    90    59    56    1
    91    58    57    2
    92    18    17    1
    93    18    19   ar
    94   115   116    1
    95    17    14    1
    96    57    56    1
    97   136   137    1
    98   136   133    1
    99    14    13    1
   100    60    61    2
   101    60    62   am
   102   137   139    1
   103   130   129   ar
   104    21    19   ar
   105    53    52   ar
   106    56    55    1
   107   120   121    1
   108   120   119    1
   109   134   133    1
   110   134   135    2
   111   123   121   ar
   112   133   132    1
   113   129   128    1
   114   129   131   ar
   115   128   125    1
   116   116   119    1
   117   116   117    1
   118    52    51    1
   119    52    54   ar
   120   121   122   ar
   121   144   145    1
   122   144   141    1
   123    49    48    2
   124    51    50    1
   125    48    47    1
   126   118   117    2
   127   127   126    2
   128    50    47    1
   129   126   125    1
   130   125   124    1
   131   141   142    1
   132   141   140    1
   133   146   147    1
   134   146   142   am
   135    47    46    1
   136   147   150    1
   137   147   148    1
   138   142   143    2
   139   160   162   ar
   140   160   159   ar
   141   162   164   ar
   142   153   151   ar
   143   150   151    1
   144   151   152   ar
   145   154   148   am
   146   154   155    1
   147   148   149    2
   148   158   159    1
   149   158   155    1
   150   159   161   ar
   151   164   163   ar
   152   155   156    1
   153   156   157    2
   154   161   163   ar
