@<TRIPOS>MOLECULE
tmp/2e9oA00.pdb
 176 166 0 0 0
SMALL
GASTEIGER

@<TRIPOS>ATOM
      1  N         -2.2030    4.6830  -28.7680 N.3    12  GLN12      -0.1231
      2  CA        -1.3280    4.3060  -27.6610 C.3    12  GLN12       0.1698
      3  C         -2.0730    4.0130  -26.3660 C.2    12  GLN12       0.2593
      4  O         -2.9900    4.7390  -25.9790 O.2    12  GLN12      -0.2718
      5  CB        -0.2980    5.4110  -27.4090 C.3    12  GLN12       0.0381
      6  CG         0.8140    5.0180  -26.4440 C.3    12  GLN12       0.0905
      7  CD         1.7070    6.1880  -26.0740 C.2    12  GLN12       0.2608
      8  OE1        2.8400    6.0010  -25.6300 O.2    12  GLN12      -0.2717
      9  NE2        1.1970    7.4020  -26.2440 N.am   12  GLN12      -0.0878
     10  N         -1.6670    2.9410  -25.6970 N.am   13  THR13      -0.1939
     11  CA        -2.2800    2.5580  -24.4360 C.3    13  THR13       0.2028
     12  C         -1.6820    3.4110  -23.3180 C.2    13  THR13       0.2642
     13  O         -0.4880    3.3300  -23.0320 O.2    13  THR13      -0.2714
     14  CB        -2.0500    1.0620  -24.1400 C.3    13  THR13       0.1808
     15  OG1       -2.4930    0.7630  -22.8120 O.3    13  THR13      -0.2208
     16  CG2       -0.5800    0.7080  -24.2770 C.3    13  THR13       0.0379
     17  N         -2.5160    4.2390  -22.7000 N.am   14  LEU14      -0.1977
     18  CA        -2.0650    5.1210  -21.6290 C.3    14  LEU14       0.1596
     19  C         -2.0850    4.4500  -20.2600 C.2    14  LEU14       0.2287
     20  O         -1.2030    4.6820  -19.4340 O.2    14  LEU14      -0.2864
     21  CB        -2.9310    6.3860  -21.5970 C.3    14  LEU14       0.0297
     22  CG        -2.8850    7.2240  -22.8740 C.3    14  LEU14       0.0022
     23  CD1       -3.7450    8.4630  -22.7170 C.3    14  LEU14       0.0001
     24  CD2       -1.4450    7.6100  -23.1630 C.3    14  LEU14       0.0001
     25  N        -10.7730   -1.4370  -14.3210 N.3    19  TYR19      -0.1241
     26  CA       -11.7040   -0.7050  -15.1740 C.3    19  TYR19       0.1605
     27  C        -11.5800   -1.1280  -16.6350 C.2    19  TYR19       0.2264
     28  O        -12.5680   -1.1760  -17.3710 O.2    19  TYR19      -0.2867
     29  CB       -11.4300    0.7970  -15.0540 C.3    19  TYR19       0.0534
     30  CG        -9.9640    1.1500  -15.1900 C.ar   19  TYR19      -0.0201
     31  CD1       -9.0390    0.7420  -14.2330 C.ar   19  TYR19      -0.0009
     32  CD2       -9.4990    1.8660  -16.2860 C.ar   19  TYR19      -0.0009
     33  CE1       -7.6950    1.0350  -14.3650 C.ar   19  TYR19       0.0417
     34  CE2       -8.1520    2.1640  -16.4280 C.ar   19  TYR19       0.0417
     35  CZ        -7.2550    1.7450  -15.4640 C.ar   19  TYR19       0.1957
     36  OH        -5.9130    2.0360  -15.5960 O.3    19  TYR19      -0.2866
     37  N         -7.0470    2.6970  -20.8740 N.3    22  VAL22      -0.1245
     38  CA        -7.1900    4.0760  -21.3070 C.3    22  VAL22       0.1561
     39  C         -6.2930    4.2320  -22.5260 C.2    22  VAL22       0.2260
     40  O         -5.0910    4.0090  -22.4420 O.2    22  VAL22      -0.2867
     41  CB        -6.7370    5.0620  -20.2000 C.3    22  VAL22       0.0252
     42  CG1       -6.7740    6.4910  -20.7180 C.3    22  VAL22       0.0019
     43  CG2       -7.6350    4.9220  -18.9850 C.3    22  VAL22       0.0019
     44  N         -7.8780   11.5440  -24.1280 N.3    35  ALA35      -0.1245
     45  CA        -7.7330   10.2570  -23.4810 C.3    35  ALA35       0.1562
     46  C         -9.0990    9.5880  -23.4940 C.2    35  ALA35       0.2260
     47  O        -10.0930   10.1800  -23.0780 O.2    35  ALA35      -0.2867
     48  CB        -7.2480   10.4410  -22.0490 C.3    35  ALA35       0.0290
     49  N        -11.1930    6.4950  -22.0660 N.3    37  LYS37      -0.1245
     50  CA       -11.2380    5.4270  -21.0820 C.3    37  LYS37       0.1561
     51  C        -12.2630    4.4150  -21.5690 C.2    37  LYS37       0.2260
     52  O        -13.4140    4.7620  -21.8430 O.2    37  LYS37      -0.2867
     53  CB       -11.6420    5.9860  -19.7140 C.3    37  LYS37       0.0271
     54  CG       -11.4910    5.0150  -18.5560 C.3    37  LYS37       0.0035
     55  CD       -11.7980    5.7080  -17.2390 C.3    37  LYS37       0.0206
     56  CE       -11.4400    4.8410  -16.0470 C.3    37  LYS37       0.1093
     57  NZ       -11.6190    5.5840  -14.7680 N.3    37  LYS37      -0.1314
     58  N        -19.5970    7.5150  -12.0850 N.3    54  GLU54      -0.1245
     59  CA       -18.3700    8.1760  -12.5030 C.3    54  GLU54       0.1567
     60  C        -18.6620    9.1730  -13.6100 C.2    54  GLU54       0.2260
     61  O        -18.0150   10.2160  -13.7120 O.2    54  GLU54      -0.2867
     62  CB       -17.3610    7.1380  -12.9980 C.3    54  GLU54       0.0388
     63  CG       -16.0820    7.7290  -13.5660 C.3    54  GLU54       0.1160
     64  CD       -15.0190    6.6730  -13.8180 C.2    54  GLU54       0.3649
     65  OE1      -13.9820    7.0030  -14.4320 O.co2  54  GLU54      -0.2457
     66  OE2      -15.2170    5.5150  -13.3910 O.co2  54  GLU54      -0.2457
     67  N        -18.2550   13.2950  -13.4770 N.3    58  ASN58      -0.1240
     68  CA       -17.3990   13.9480  -14.4600 C.3    58  ASN58       0.1653
     69  C        -18.1350   15.1020  -15.1360 C.2    58  ASN58       0.2266
     70  O        -17.5300   16.1250  -15.4560 O.2    58  ASN58      -0.2867
     71  CB       -16.9190   12.9460  -15.5190 C.3    58  ASN58       0.1155
     72  CG       -15.5770   12.3150  -15.1650 C.2    58  ASN58       0.2627
     73  OD1      -14.5510   12.9970  -15.1240 O.2    58  ASN58      -0.2716
     74  ND2      -15.5790   11.0100  -14.9090 N.am   58  ASN58      -0.0877
     75  N         -9.0480   17.0190  -14.5130 N.3    67  VAL67      -0.1245
     76  CA        -9.1010   16.4760  -15.8650 C.3    67  VAL67       0.1561
     77  C        -10.4450   16.7930  -16.4990 C.2    67  VAL67       0.2260
     78  O        -11.5010   16.5060  -15.9280 O.2    67  VAL67      -0.2867
     79  CB        -8.8960   14.9460  -15.8800 C.3    67  VAL67       0.0252
     80  CG1       -9.2560   14.3850  -17.2590 C.3    67  VAL67       0.0019
     81  CG2       -7.4460   14.6190  -15.5590 C.3    67  VAL67       0.0019
     82  N        -11.8470   11.8880  -22.1460 N.3    83  LEU83      -0.1231
     83  CA       -11.2210   12.7580  -21.1590 C.3    83  LEU83       0.1693
     84  C         -9.9770   13.4770  -21.6750 C.2    83  LEU83       0.2592
     85  O         -9.4290   13.1460  -22.7280 O.2    83  LEU83      -0.2718
     86  CB       -10.8590   11.9290  -19.9260 C.3    83  LEU83       0.0284
     87  CG       -12.0260   11.1350  -19.3240 C.3    83  LEU83       0.0019
     88  CD1      -11.5790    9.7170  -18.9770 C.3    83  LEU83       0.0001
     89  CD2      -12.5570   11.8600  -18.1020 C.3    83  LEU83       0.0001
     90  N         -9.5290   14.4570  -20.9070 N.am   84  GLU84      -0.1966
     91  CA        -8.3600   15.2420  -21.2610 C.3    84  GLU84       0.1733
     92  C         -7.0750   14.4270  -21.3680 C.2    84  GLU84       0.2616
     93  O         -6.7890   13.5690  -20.5260 O.2    84  GLU84      -0.2715
     94  CB        -8.1460   16.3430  -20.2260 C.3    84  GLU84       0.0429
     95  CG        -7.1490   17.4080  -20.6510 C.3    84  GLU84       0.1163
     96  CD        -6.9530   18.4630  -19.5890 C.2    84  GLU84       0.3649
     97  OE1       -7.9180   18.7350  -18.8440 O.co2  84  GLU84      -0.2457
     98  OE2       -5.8400   19.0240  -19.5050 O.co2  84  GLU84      -0.2457
     99  N         -6.3040   14.7010  -22.4100 N.am   85  TYR85      -0.1960
    100  CA        -5.0250   14.0360  -22.5890 C.3    85  TYR85       0.1771
    101  C         -4.0020   14.9640  -21.9540 C.2    85  TYR85       0.2620
    102  O         -3.9080   16.1320  -22.3180 O.2    85  TYR85      -0.2715
    103  CB        -4.6990   13.8480  -24.0730 C.3    85  TYR85       0.0574
    104  CG        -3.2850   13.3630  -24.3160 C.ar   85  TYR85      -0.0198
    105  CD1       -2.8100   12.2090  -23.7080 C.ar   85  TYR85      -0.0009
    106  CD2       -2.4220   14.0640  -25.1520 C.ar   85  TYR85      -0.0009
    107  CE1       -1.5140   11.7660  -23.9250 C.ar   85  TYR85       0.0417
    108  CE2       -1.1260   13.6290  -25.3740 C.ar   85  TYR85       0.0417
    109  CZ        -0.6780   12.4810  -24.7580 C.ar   85  TYR85       0.1957
    110  OH         0.6160   12.0540  -24.9700 O.3    85  TYR85      -0.2866
    111  N         -3.2560   14.4450  -20.9880 N.am   86  CYS86      -0.1954
    112  CA        -2.2450   15.2310  -20.2970 C.3    86  CYS86       0.1843
    113  C         -0.8750   14.6580  -20.6710 C.2    86  CYS86       0.2626
    114  O         -0.3750   13.7440  -20.0210 O.2    86  CYS86      -0.2714
    115  CB        -2.4800   15.1520  -18.7790 C.3    86  CYS86       0.0997
    116  SG        -4.1800   15.5760  -18.2480 S.3    86  CYS86      -0.0797
    117  N         -0.2840   15.1980  -21.7330 N.am   87  SER87      -0.1950
    118  CA         1.0080   14.7380  -22.2340 C.3    87  SER87       0.1924
    119  C          2.1120   14.6650  -21.1870 C.2    87  SER87       0.2314
    120  O          3.1030   13.9630  -21.3780 O.2    87  SER87      -0.2863
    121  CB         1.4720   15.6320  -23.3840 C.3    87  SER87       0.2116
    122  OG         1.6160   16.9750  -22.9600 O.3    87  SER87      -0.2180
    123  N          1.9990   13.2460  -18.3360 N.3    89  GLY89      -0.1210
    124  CA         2.0340   11.9590  -17.6670 C.3    89  GLY89       0.1956
    125  C          1.7110   12.0780  -16.1880 C.2    89  GLY89       0.2611
    126  O          1.2000   13.1050  -15.7390 O.2    89  GLY89      -0.2717
    127  N          2.0260   11.0310  -15.4330 N.am   90  GLU90      -0.1979
    128  CA         1.7470   10.9810  -14.0040 C.3    90  GLU90       0.1602
    129  C          2.8040   11.6510  -13.1260 C.2    90  GLU90       0.2287
    130  O          4.0010   11.4790  -13.3360 O.2    90  GLU90      -0.2864
    131  CB         1.5870    9.5240  -13.5530 C.3    90  GLU90       0.0415
    132  CG         0.5930    8.7080  -14.3720 C.3    90  GLU90       0.1163
    133  CD         0.3960    7.2970  -13.8280 C.2    90  GLU90       0.3649
    134  OE1        1.2500    6.8300  -13.0420 O.co2  90  GLU90      -0.2457
    135  OE2       -0.6090    6.6520  -14.1950 O.co2  90  GLU90      -0.2457
    136  N          5.7970    9.7470  -11.8770 N.3    93  ASP93      -0.1239
    137  CA         7.0780    9.6180  -12.5640 C.3    93  ASP93       0.1674
    138  C          8.0030   10.8110  -12.4060 C.2    93  ASP93       0.2266
    139  O          9.1680   10.7480  -12.7940 O.2    93  ASP93      -0.2867
    140  CB         6.8440    9.3120  -14.0400 C.3    93  ASP93       0.1410
    141  CG         6.2770    7.9220  -14.2450 C.2    93  ASP93       0.3668
    142  OD1        5.7070    7.6510  -15.3180 O.co2  93  ASP93      -0.2456
    143  OD2        6.4120    7.0960  -13.3200 O.co2  93  ASP93      -0.2456
    144  N         -2.1710   13.9860  -12.8590 N.3   136  LEU136     -0.1245
    145  CA        -1.5940   14.1010  -14.1860 C.3   136  LEU136      0.1561
    146  C         -1.0380   15.4890  -14.4580 C.2   136  LEU136      0.2260
    147  O         -1.3770   16.4550  -13.7730 O.2   136  LEU136     -0.2867
    148  CB        -2.6450   13.7340  -15.2370 C.3   136  LEU136      0.0270
    149  CG        -3.3350   12.3890  -14.9630 C.3   136  LEU136      0.0019
    150  CD1       -4.2780   12.0700  -16.0900 C.3   136  LEU136      0.0001
    151  CD2       -2.2870   11.2840  -14.8010 C.3   136  LEU136      0.0001
    152  N         -7.1630   13.3320  -11.6420 N.3   146  SER146     -0.1202
    153  CA        -7.8530   12.4210  -12.5390 C.3   146  SER146      0.2020
    154  C         -8.4560   11.2030  -11.8640 C.2   146  SER146      0.2619
    155  O         -8.1780   10.9090  -10.6970 O.2   146  SER146     -0.2717
    156  CB        -6.8940   11.9300  -13.6240 C.3   146  SER146      0.2103
    157  OG        -6.0220   10.9380  -13.1000 O.3   146  SER146     -0.2182
    158  N         -9.2850   10.5050  -12.6380 N.am  147  ASP147     -0.1959
    159  CA        -9.9440    9.2780  -12.2260 C.3   147  ASP147      0.1840
    160  C        -10.9200    9.4390  -11.0800 C.2   147  ASP147      0.2622
    161  O        -10.5350    9.3790   -9.9190 O.2   147  ASP147     -0.2715
    162  CB        -8.8960    8.2200  -11.8680 C.3   147  ASP147      0.1450
    163  CG        -9.5000    6.8410  -11.7010 C.2   147  ASP147      0.3671
    164  OD1       -8.7370    5.8510  -11.6700 O.co2 147  ASP147     -0.2456
    165  OD2      -10.7380    6.7470  -11.5960 O.co2 147  ASP147     -0.2456
    166  N        -12.1920    9.6250  -11.4170 N.am  148  PHE148     -0.1974
    167  CA       -13.2180    9.7860  -10.4120 C.3   148  PHE148      0.1639
    168  C        -14.0400    8.5210  -10.2500 C.2   148  PHE148      0.2290
    169  O        -15.2310    8.5710   -9.9660 O.2   148  PHE148     -0.2864
    170  CB       -14.1070   10.9890  -10.7510 C.3   148  PHE148      0.0560
    171  CG       -13.3890   12.3050  -10.6330 C.ar  148  PHE148     -0.0200
    172  CD1      -12.5400   12.7400  -11.6390 C.ar  148  PHE148     -0.0042
    173  CD2      -13.4830   13.0540   -9.4720 C.ar  148  PHE148     -0.0042
    174  CE1      -11.7880   13.8980  -11.4850 C.ar  148  PHE148     -0.0003
    175  CE2      -12.7320   14.2180   -9.3110 C.ar  148  PHE148     -0.0003
    176  CZ       -11.8840   14.6350  -10.3190 C.ar  148  PHE148     -0.0000
@<TRIPOS>BOND
     1     1     2    1
     2     2     5    1
     3     2     3    1
     4     5     6    1
     5     6     7    1
     6     3     4    2
     7     3    10   am
     8     9     7   am
     9     7     8    2
    10    10    11    1
    11   108   106   ar
    12   108   109   ar
    13   106   104   ar
    14   110   109    1
    15   109   107   ar
    16    11    14    1
    17    11    12    1
    18   104   103    1
    19   104   105   ar
    20    16    14    1
    21    14    15    1
    22    44    45    1
    23   103   100    1
    24   107   105   ar
    25    46    45    1
    26    46    47    2
    27    45    48    1
    28   121   122    1
    29   121   118    1
    30    12    13    2
    31    12    17   am
    32    24    22    1
    33    22    23    1
    34    22    21    1
    35    85    84    2
    36    17    18    1
    37   100    99    1
    38   100   101    1
    39    39    40    2
    40    39    38    1
    41    99    92   am
    42   102   101    2
    43   118   117    1
    44   118   119    1
    45    82    83    1
    46    49    50    1
    47   101   111   am
    48    52    51    2
    49   117   113   am
    50    84    83    1
    51    84    90   am
    52    18    21    1
    53    18    19    1
    54    51    50    1
    55   120   119    2
    56    92    91    1
    57    92    93    2
    58    38    37    1
    59    38    41    1
    60    91    90    1
    61    91    94    1
    62    83    86    1
    63    50    53    1
    64   111   112    1
    65    42    41    1
    66   113   112    1
    67   113   114    2
    68    95    94    1
    69    95    96    1
    70   112   115    1
    71    19    20    2
    72    41    43    1
    73    86    87    1
    74    53    54    1
    75    96    98   ar
    76    96    97   ar
    77    87    88    1
    78    87    89    1
    79   115   116    1
    80    54    55    1
    81   123   124    1
    82   124   125    1
    83    28    27    2
    84    80    79    1
    85    55    56    1
    86    27    26    1
    87    77    78    2
    88    77    76    1
    89    34    32   ar
    90    34    35   ar
    91    32    30   ar
    92   125   126    2
    93   125   127   am
    94   150   149    1
    95    56    57    1
    96    79    76    1
    97    79    81    1
    98    76    75    1
    99    36    35    1
   100    71    72    1
   101    71    68    1
   102    35    33   ar
   103    70    69    2
   104   127   128    1
   105   142   141   ar
   106   148   149    1
   107   148   145    1
   108    30    29    1
   109    30    31   ar
   110    26    29    1
   111    26    25    1
   112    72    73    2
   113    72    74   am
   114    69    68    1
   115   149   151    1
   116    68    67    1
   117   146   145    1
   118   146   147    2
   119    65    64   ar
   120   132   133    1
   121   132   131    1
   122    33    31   ar
   123   141   140    1
   124   141   143   ar
   125   135   133   ar
   126   145   144    1
   127   140   137    1
   128   128   131    1
   129   128   129    1
   130   133   134   ar
   131    64    63    1
   132    64    66   ar
   133    61    60    2
   134   156   157    1
   135   156   153    1
   136    60    59    1
   137    63    62    1
   138   130   129    2
   139    62    59    1
   140   139   138    2
   141   158   159    1
   142   158   154   am
   143   137   138    1
   144   137   136    1
   145   153   154    1
   146   153   152    1
   147    59    58    1
   148   159   162    1
   149   159   160    1
   150   162   163    1
   151   154   155    2
   152   163   164   ar
   153   163   165   ar
   154   172   174   ar
   155   172   171   ar
   156   174   176   ar
   157   166   160   am
   158   166   167    1
   159   160   161    2
   160   170   171    1
   161   170   167    1
   162   171   173   ar
   163   167   168    1
   164   176   175   ar
   165   168   169    2
   166   173   175   ar
