@<TRIPOS>MOLECULE
tmp/2e9pA00.pdb
 158 149 0 0 0
SMALL
GASTEIGER

@<TRIPOS>ATOM
      1  N         -1.2950    4.3470  -23.4360 N.3    14  LEU14      -0.1231
      2  CA        -0.5580    5.2050  -22.5140 C.3    14  LEU14       0.1693
      3  C         -0.3490    4.5280  -21.1730 C.2    14  LEU14       0.2592
      4  O          0.5930    4.8410  -20.4500 O.2    14  LEU14      -0.2718
      5  CB        -1.3120    6.5160  -22.3080 C.3    14  LEU14       0.0284
      6  CG        -1.5670    7.3380  -23.5680 C.3    14  LEU14       0.0019
      7  CD1       -2.5700    8.4370  -23.2700 C.3    14  LEU14       0.0001
      8  CD2       -0.2560    7.9060  -24.0720 C.3    14  LEU14       0.0001
      9  N         -1.2420    3.6040  -20.8460 N.am   15  GLY15      -0.1957
     10  CA        -1.1410    2.8910  -19.5920 C.3    15  GLY15       0.1869
     11  C         -1.9690    1.6270  -19.6250 C.2    15  GLY15       0.2309
     12  O         -2.9290    1.5230  -20.3900 O.2    15  GLY15      -0.2863
     13  N         -8.6240   -1.5530  -14.6300 N.3    19  TYR19      -0.1241
     14  CA        -9.6720   -1.0610  -15.5250 C.3    19  TYR19       0.1605
     15  C         -9.5760   -1.6280  -16.9420 C.2    19  TYR19       0.2264
     16  O        -10.5880   -1.9460  -17.5690 O.2    19  TYR19      -0.2867
     17  CB        -9.6160    0.4680  -15.5840 C.3    19  TYR19       0.0534
     18  CG        -8.2070    1.0160  -15.6900 C.ar   19  TYR19      -0.0201
     19  CD1       -7.3130    0.9030  -14.6270 C.ar   19  TYR19      -0.0009
     20  CD2       -7.7640    1.6320  -16.8540 C.ar   19  TYR19      -0.0009
     21  CE1       -6.0220    1.3840  -14.7200 C.ar   19  TYR19       0.0417
     22  CE2       -6.4750    2.1170  -16.9580 C.ar   19  TYR19       0.0417
     23  CZ        -5.6060    1.9910  -15.8880 C.ar   19  TYR19       0.1957
     24  OH        -4.3190    2.4720  -15.9850 O.3    19  TYR19      -0.2866
     25  N         -5.7360    2.6770  -21.2020 N.3    22  VAL22      -0.1245
     26  CA        -5.9880    4.0480  -21.6060 C.3    22  VAL22       0.1561
     27  C         -5.2110    4.2350  -22.8920 C.2    22  VAL22       0.2260
     28  O         -3.9940    4.0500  -22.9240 O.2    22  VAL22      -0.2867
     29  CB        -5.4700    5.0570  -20.5720 C.3    22  VAL22       0.0252
     30  CG1       -5.6080    6.4710  -21.1190 C.3    22  VAL22       0.0019
     31  CG2       -6.2410    4.9100  -19.2720 C.3    22  VAL22       0.0019
     32  N         -7.7600   11.1890  -24.3050 N.3    35  ALA35      -0.1245
     33  CA        -7.4680    9.9200  -23.6640 C.3    35  ALA35       0.1562
     34  C         -8.7120    9.0490  -23.6820 C.2    35  ALA35       0.2260
     35  O         -9.8080    9.5050  -23.3630 O.2    35  ALA35      -0.2867
     36  CB        -7.0160   10.1550  -22.2370 C.3    35  ALA35       0.0290
     37  N        -10.3510    5.5850  -22.1940 N.3    37  LYS37      -0.1245
     38  CA       -10.3110    4.4850  -21.2430 C.3    37  LYS37       0.1561
     39  C        -11.2530    3.4090  -21.7630 C.2    37  LYS37       0.2260
     40  O        -12.3540    3.7120  -22.2290 O.2    37  LYS37      -0.2867
     41  CB       -10.7690    4.9690  -19.8650 C.3    37  LYS37       0.0271
     42  CG       -10.7030    3.9210  -18.7690 C.3    37  LYS37       0.0035
     43  CD       -11.1260    4.5140  -17.4340 C.3    37  LYS37       0.0206
     44  CE       -10.9590    3.5220  -16.2970 C.3    37  LYS37       0.1093
     45  NZ       -11.2650    4.1360  -14.9730 N.3    37  LYS37      -0.1314
     46  N        -18.5170    7.0780  -12.2800 N.3    54  GLU54      -0.1245
     47  CA       -17.3470    7.7530  -12.8190 C.3    54  GLU54       0.1567
     48  C        -17.7800    8.6770  -13.9460 C.2    54  GLU54       0.2260
     49  O        -17.1040    9.6560  -14.2530 O.2    54  GLU54      -0.2867
     50  CB       -16.3170    6.7430  -13.3340 C.3    54  GLU54       0.0388
     51  CG       -15.0400    7.3960  -13.8360 C.3    54  GLU54       0.1160
     52  CD       -13.8610    6.4390  -13.8990 C.2    54  GLU54       0.3649
     53  OE1      -12.7700    6.8630  -14.3420 O.co2  54  GLU54      -0.2457
     54  OE2      -14.0210    5.2680  -13.5010 O.co2  54  GLU54      -0.2457
     55  N         -8.9470   16.7790  -14.6460 N.3    67  VAL67      -0.1245
     56  CA        -9.0320   16.1980  -15.9770 C.3    67  VAL67       0.1561
     57  C        -10.4090   16.3830  -16.5920 C.2    67  VAL67       0.2260
     58  O        -11.4290   15.9920  -16.0180 O.2    67  VAL67      -0.2867
     59  CB        -8.6970   14.6980  -15.9710 C.3    67  VAL67       0.0252
     60  CG1       -9.0320   14.1020  -17.3260 C.3    67  VAL67       0.0019
     61  CG2       -7.2240   14.4940  -15.6640 C.3    67  VAL67       0.0019
     62  N        -11.4560   11.2450  -22.1500 N.3    83  LEU83      -0.1231
     63  CA       -10.9080   12.1560  -21.1650 C.3    83  LEU83       0.1693
     64  C         -9.8530   13.0630  -21.7730 C.2    83  LEU83       0.2592
     65  O         -9.4600   12.8960  -22.9240 O.2    83  LEU83      -0.2718
     66  CB       -10.3080   11.3450  -20.0200 C.3    83  LEU83       0.0284
     67  CG       -11.3070   10.3980  -19.3460 C.3    83  LEU83       0.0019
     68  CD1      -10.5640    9.2910  -18.6130 C.3    83  LEU83       0.0001
     69  CD2      -12.2070   11.1950  -18.4050 C.3    83  LEU83       0.0001
     70  N         -9.4020   14.0340  -20.9920 N.am   84  GLU84      -0.1966
     71  CA        -8.3890   14.9660  -21.4540 C.3    84  GLU84       0.1733
     72  C         -7.0690   14.2420  -21.6430 C.2    84  GLU84       0.2616
     73  O         -6.7700   13.2970  -20.9210 O.2    84  GLU84      -0.2715
     74  CB        -8.1980   16.0780  -20.4290 C.3    84  GLU84       0.0429
     75  CG        -7.3360   17.2150  -20.9130 C.3    84  GLU84       0.1163
     76  CD        -6.9910   18.1780  -19.8040 C.2    84  GLU84       0.3649
     77  OE1       -7.8760   18.4740  -18.9690 O.co2  84  GLU84      -0.2457
     78  OE2       -5.8310   18.6450  -19.7750 O.co2  84  GLU84      -0.2457
     79  N         -6.2850   14.6840  -22.6180 N.am   85  TYR85      -0.1960
     80  CA        -4.9840   14.0890  -22.8720 C.3    85  TYR85       0.1771
     81  C         -3.9620   14.8890  -22.0770 C.2    85  TYR85       0.2620
     82  O         -3.9910   16.1160  -22.0920 O.2    85  TYR85      -0.2715
     83  CB        -4.6490   14.1520  -24.3600 C.3    85  TYR85       0.0574
     84  CG        -3.2360   13.7130  -24.6680 C.ar   85  TYR85      -0.0198
     85  CD1       -2.7570   12.4830  -24.2250 C.ar   85  TYR85      -0.0009
     86  CD2       -2.3710   14.5380  -25.3710 C.ar   85  TYR85      -0.0009
     87  CE1       -1.4500   12.0940  -24.4730 C.ar   85  TYR85       0.0417
     88  CE2       -1.0680   14.1580  -25.6240 C.ar   85  TYR85       0.0417
     89  CZ        -0.6100   12.9380  -25.1730 C.ar   85  TYR85       0.1957
     90  OH         0.6940   12.5720  -25.4200 O.3    85  TYR85      -0.2866
     91  N         -3.0630   14.2030  -21.3780 N.am   86  CYS86      -0.1954
     92  CA        -2.0540   14.8910  -20.5710 C.3    86  CYS86       0.1843
     93  C         -0.6410   14.4250  -20.9120 C.2    86  CYS86       0.2626
     94  O         -0.0300   13.6740  -20.1580 O.2    86  CYS86      -0.2714
     95  CB        -2.3280   14.6590  -19.0730 C.3    86  CYS86       0.0997
     96  SG        -4.0090   15.0820  -18.5070 S.3    86  CYS86      -0.0797
     97  N         -0.1200   14.8870  -22.0430 N.am   87  SER87      -0.1936
     98  CA         1.2150   14.4990  -22.4900 C.3    87  SER87       0.2055
     99  C          2.2450   14.4790  -21.3710 C.2    87  SER87       0.2644
    100  O          3.2880   13.8380  -21.5000 O.2    87  SER87      -0.2714
    101  CB         1.6960   15.4300  -23.6040 C.3    87  SER87       0.2130
    102  OG         1.8530   16.7530  -23.1250 O.3    87  SER87      -0.2179
    103  N          1.9510   15.1780  -20.2780 N.am   88  GLY88      -0.1939
    104  CA         2.8600   15.2230  -19.1450 C.3    88  GLY88       0.2014
    105  C          3.0120   13.8840  -18.4500 C.2    88  GLY88       0.2639
    106  O          4.1270   13.4520  -18.1920 O.2    88  GLY88      -0.2714
    107  N          1.8970   13.2250  -18.1430 N.am   89  GLY89      -0.1939
    108  CA         1.9540   11.9280  -17.4880 C.3    89  GLY89       0.2014
    109  C          1.6350   11.9650  -16.0050 C.2    89  GLY89       0.2638
    110  O          1.2480   13.0070  -15.4710 O.2    89  GLY89      -0.2714
    111  N          1.8030   10.8300  -15.3310 N.am   90  GLU90      -0.1977
    112  CA         1.5290   10.7370  -13.8990 C.3    90  GLU90       0.1602
    113  C          2.6190   11.3930  -13.0510 C.2    90  GLU90       0.2287
    114  O          3.8060   11.1730  -13.2760 O.2    90  GLU90      -0.2864
    115  CB         1.3890    9.2730  -13.4790 C.3    90  GLU90       0.0415
    116  CG         0.4970    8.4390  -14.3870 C.3    90  GLU90       0.1163
    117  CD         0.1450    7.0930  -13.7810 C.2    90  GLU90       0.3649
    118  OE1        0.8810    6.6260  -12.8900 O.co2  90  GLU90      -0.2457
    119  OE2       -0.8620    6.4930  -14.2050 O.co2  90  GLU90      -0.2457
    120  N         -0.2960    8.7330   -8.7880 N.3   133  GLU133     -0.1231
    121  CA        -0.6720    8.0900  -10.0330 C.3   133  GLU133      0.1699
    122  C         -2.0420    8.5560  -10.5350 C.2   133  GLU133      0.2592
    123  O         -2.4520    8.1950  -11.6340 O.2   133  GLU133     -0.2718
    124  CB        -0.6270    6.5530   -9.9050 C.3   133  GLU133      0.0402
    125  CG        -1.1640    5.9660   -8.6080 C.3   133  GLU133      0.1161
    126  CD        -0.1860    6.0960   -7.4300 C.2   133  GLU133      0.3649
    127  OE1       -0.0500    7.2030   -6.8490 O.co2 133  GLU133     -0.2457
    128  OE2        0.4480    5.0720   -7.0870 O.co2 133  GLU133     -0.2457
    129  N         -2.7490    9.3530   -9.7340 N.am  134  ASN134     -0.1974
    130  CA        -4.0510    9.8880  -10.1390 C.3   134  ASN134      0.1688
    131  C         -3.9270   11.3890  -10.3050 C.2   134  ASN134      0.2292
    132  O         -4.8990   12.1320  -10.1640 O.2   134  ASN134     -0.2864
    133  CB        -5.1340    9.6010   -9.1070 C.3   134  ASN134      0.1181
    134  CG        -5.5440    8.1560   -9.0910 C.2   134  ASN134      0.2629
    135  OD1       -5.4070    7.4580  -10.0970 O.2   134  ASN134     -0.2716
    136  ND2       -6.0690    7.6950   -7.9560 N.am  134  ASN134     -0.0877
    137  N         -2.2420   13.7780  -13.1310 N.3   136  LEU136     -0.1245
    138  CA        -1.5880   13.8460  -14.4160 C.3   136  LEU136      0.1561
    139  C         -1.0410   15.2290  -14.6840 C.2   136  LEU136      0.2260
    140  O         -1.4510   16.2100  -14.0560 O.2   136  LEU136     -0.2867
    141  CB        -2.5710   13.4370  -15.5010 C.3   136  LEU136      0.0270
    142  CG        -3.0220   11.9870  -15.3110 C.3   136  LEU136      0.0019
    143  CD1       -4.1330   11.6630  -16.2840 C.3   136  LEU136      0.0001
    144  CD2       -1.8290   11.0540  -15.4990 C.3   136  LEU136      0.0001
    145  N         -7.2780   13.0920  -11.8540 N.3   146  SER146     -0.1202
    146  CA        -8.0330   12.1380  -12.6440 C.3   146  SER146      0.2020
    147  C         -8.5250   10.9720  -11.7970 C.2   146  SER146      0.2618
    148  O         -8.2390   10.8930  -10.5950 O.2   146  SER146     -0.2717
    149  CB        -7.1480   11.5910  -13.7530 C.3   146  SER146      0.2103
    150  OG        -6.1450   10.7620  -13.1980 O.3   146  SER146     -0.2182
    151  N         -9.2510   10.0610  -12.4390 N.am  147  ASP147     -0.1973
    152  CA        -9.7940    8.8710  -11.7820 C.3   147  ASP147      0.1709
    153  C        -10.8070    9.1870  -10.6890 C.2   147  ASP147      0.2293
    154  O        -10.4730    9.2230   -9.5040 O.2   147  ASP147     -0.2864
    155  CB        -8.6740    8.0160  -11.1810 C.3   147  ASP147      0.1436
    156  CG        -7.7060    7.5060  -12.2220 C.2   147  ASP147      0.3671
    157  OD1       -6.8330    8.2900  -12.6640 O.co2 147  ASP147     -0.2456
    158  OD2       -7.8280    6.3190  -12.5980 O.co2 147  ASP147     -0.2456
@<TRIPOS>BOND
     1    88    86   ar
     2    88    89   ar
     3    90    89    1
     4    86    84   ar
     5    89    87   ar
     6    84    83    1
     7    84    85   ar
     8    87    85   ar
     9    83    80    1
    10    32    33    1
    11     8     6    1
    12    34    33    1
    13    34    35    2
    14    33    36    1
    15   101   102    1
    16   101    98    1
    17     6     7    1
    18     6     5    1
    19     1     2    1
    20    65    64    2
    21    28    27    2
    22    27    26    1
    23    80    79    1
    24    80    81    1
    25    79    72   am
    26     2     5    1
    27     2     3    1
    28    98    97    1
    29    98    99    1
    30    40    39    2
    31    37    38    1
    32    62    63    1
    33    82    81    2
    34    81    91   am
    35    97    93   am
    36    64    63    1
    37    64    70   am
    38    39    38    1
    39    72    71    1
    40    72    73    2
    41    26    25    1
    42    26    29    1
    43   100    99    2
    44    71    70    1
    45    71    74    1
    46    91    92    1
    47    99   103   am
    48    38    41    1
    49     3     9   am
    50     3     4    2
    51    63    66    1
    52    30    29    1
    53    75    74    1
    54    75    76    1
    55    93    92    1
    56    93    94    2
    57     9    10    1
    58    29    31    1
    59    92    95    1
    60    12    11    2
    61   103   104    1
    62    66    67    1
    63    41    42    1
    64    76    78   ar
    65    76    77   ar
    66    11    10    1
    67    67    68    1
    68    67    69    1
    69   104   105    1
    70    95    96    1
    71    42    43    1
    72   105   106    2
    73   105   107   am
    74   107   108    1
    75    16    15    2
    76   108   109    1
    77    43    44    1
    78    60    59    1
    79    22    20   ar
    80    22    23   ar
    81    15    14    1
    82    20    18   ar
    83    57    58    2
    84    57    56    1
    85    44    45    1
    86   143   142    1
    87   109   110    2
    88   109   111   am
    89    24    23    1
    90    56    59    1
    91    56    55    1
    92    59    61    1
    93    23    21   ar
    94    18    17    1
    95    18    19   ar
    96    17    14    1
    97    14    13    1
    98   141   142    1
    99   141   138    1
   100   144   142    1
   101   111   112    1
   102    21    19   ar
   103   139   138    1
   104   139   140    2
   105   138   137    1
   106   116   117    1
   107   116   115    1
   108    53    52   ar
   109    49    48    2
   110   119   117   ar
   111    48    47    1
   112    52    51    1
   113    52    54   ar
   114   112   115    1
   115   112   113    1
   116    51    50    1
   117   117   118   ar
   118   149   150    1
   119   149   146    1
   120    50    47    1
   121   114   113    2
   122    47    46    1
   123   157   156   ar
   124   146   145    1
   125   146   147    1
   126   158   156   ar
   127   151   147   am
   128   151   152    1
   129   156   155    1
   130   147   148    2
   131   152   155    1
   132   152   153    1
   133   123   122    2
   134   153   154    2
   135   122   121    1
   136   122   129   am
   137   131   132    2
   138   131   130    1
   139   130   129    1
   140   130   133    1
   141   135   134    2
   142   121   124    1
   143   121   120    1
   144   124   125    1
   145   133   134    1
   146   134   136   am
   147   125   126    1
   148   126   128   ar
   149   126   127   ar
