@<TRIPOS>MOLECULE
tmp/2e9rC00.pdb
 169 162 0 0 0
SMALL
GASTEIGER

@<TRIPOS>ATOM
      1  N         12.8650   17.4520    9.7290 N.3    59  LYS59      -0.1245
      2  CA        13.9720   17.3480   10.6720 C.3    59  LYS59       0.1561
      3  C         13.9630   15.9750   11.3500 C.2    59  LYS59       0.2260
      4  O         14.8260   15.6960   12.1890 O.2    59  LYS59      -0.2867
      5  CB        13.9670   18.4990   11.7090 C.3    59  LYS59       0.0271
      6  CG        12.9120   18.4390   12.7870 C.3    59  LYS59       0.0035
      7  CD        13.0450   19.6420   13.7030 C.3    59  LYS59       0.0206
      8  CE        12.0300   19.5690   14.8650 C.3    59  LYS59       0.1093
      9  NZ        12.2110   20.6300   15.9290 N.3    59  LYS59      -0.1314
     10  N          6.9450   29.3470   15.6040 N.3   164  LYS164     -0.1245
     11  CA         7.6640   30.4530   16.1890 C.3   164  LYS164      0.1561
     12  C          7.5190   31.6760   15.3130 C.2   164  LYS164      0.2260
     13  O          8.2050   31.8160   14.2950 O.2   164  LYS164     -0.2867
     14  CB         9.1390   30.1000   16.3650 C.3   164  LYS164      0.0271
     15  CG         9.4340   29.3820   17.6530 C.3   164  LYS164      0.0035
     16  CD        10.8460   29.7230   18.1980 C.3   164  LYS164      0.0206
     17  CE        10.8280   30.6120   19.4870 C.3   164  LYS164      0.1093
     18  NZ        10.2910   32.0090   19.2700 N.3   164  LYS164     -0.1314
     19  N         13.3690   35.6500   10.6040 N.3   168  ARG168     -0.1245
     20  CA        14.1890   34.6110   10.0260 C.3   168  ARG168      0.1563
     21  C         14.7420   35.1550    8.7260 C.2   168  ARG168      0.2260
     22  O         14.0370   35.8930    8.0430 O.2   168  ARG168     -0.2867
     23  CB        13.3020   33.4130    9.7180 C.3   168  ARG168      0.0307
     24  CG        12.7860   32.6430   10.9420 C.3   168  ARG168      0.0489
     25  CD        12.9900   31.1480   10.7950 C.3   168  ARG168      0.2205
     26  NE        14.4310   30.8910   10.7630 N.pl3 168  ARG168     -0.0865
     27  CZ        15.0190   29.7330   11.0180 C.cat 168  ARG168      0.5346
     28  NH1       14.3130   28.6670   11.3260 N.pl3 168  ARG168      0.1354
     29  NH2       16.3420   29.6380   10.9820 N.pl3 168  ARG168      0.1354
     30  N         15.1720   31.3460    4.3950 N.3   172  LYS172     -0.1245
     31  CA        14.7250   30.2950    5.3010 C.3   172  LYS172      0.1561
     32  C         13.1860   30.3270    5.3440 C.2   172  LYS172      0.2260
     33  O         12.5010   29.3090    5.3800 O.2   172  LYS172     -0.2867
     34  CB        15.3860   30.4720    6.6930 C.3   172  LYS172      0.0271
     35  CG        16.9060   30.0860    6.7340 C.3   172  LYS172      0.0035
     36  CD        17.1490   28.6830    7.3310 C.3   172  LYS172      0.0206
     37  CE        18.5920   28.4720    7.8790 C.3   172  LYS172      0.1093
     38  NZ        18.7550   28.5650    9.3800 N.3   172  LYS172     -0.1314
     39  N         10.5090   27.6260   12.7980 N.3   179  ARG179     -0.1231
     40  CA        10.8870   26.8320   13.9620 C.3   179  ARG179      0.1694
     41  C          9.6750   26.3860   14.7970 C.2   179  ARG179      0.2592
     42  O          8.7440   27.1550   15.0980 O.2   179  ARG179     -0.2718
     43  CB        11.9310   27.5620   14.7820 C.3   179  ARG179      0.0321
     44  CG        13.1130   27.9090   13.8830 C.3   179  ARG179      0.0489
     45  CD        14.4240   28.1310   14.5640 C.3   179  ARG179      0.2205
     46  NE        14.4260   29.3910   15.3050 N.pl3 179  ARG179     -0.0865
     47  CZ        14.8910   29.5320   16.5200 C.cat 179  ARG179      0.5346
     48  NH1       15.4310   28.5160   17.1520 N.pl3 179  ARG179      0.1354
     49  NH2       14.8240   30.6960   17.1210 N.pl3 179  ARG179      0.1354
     50  N          9.7140   25.1230   15.1660 N.am  180  ILE180     -0.1966
     51  CA         8.6280   24.4870   15.8310 C.3   180  ILE180      0.1727
     52  C          8.9280   24.7320   17.2520 C.2   180  ILE180      0.2616
     53  O         10.0620   24.9900   17.6290 O.2   180  ILE180     -0.2715
     54  CB         8.6190   22.9520   15.6220 C.3   180  ILE180      0.0290
     55  CG1       10.0370   22.4120   15.3430 C.3   180  ILE180      0.0022
     56  CG2        7.6530   22.5150   14.5530 C.3   180  ILE180      0.0023
     57  CD1       10.6400   22.6420   13.8760 C.3   180  ILE180      0.0001
     58  N          7.8840   24.6520   18.0520 N.am  181  VAL181     -0.1977
     59  CA         7.9790   24.6730   19.5120 C.3   181  VAL181      0.1596
     60  C          7.0060   23.6080   20.0050 C.2   181  VAL181      0.2287
     61  O          5.8130   23.6990   19.7060 O.2   181  VAL181     -0.2864
     62  CB         7.4740   25.9740   20.0800 C.3   181  VAL181      0.0276
     63  CG1        7.2080   25.8300   21.5560 C.3   181  VAL181      0.0022
     64  CG2        8.4320   27.0780   19.8210 C.3   181  VAL181      0.0022
     65  N         29.2790   24.1450   14.3070 N.3   240  ASP240     -0.1225
     66  CA        27.8540   24.1900   14.0660 C.3   240  ASP240      0.1805
     67  C         27.3290   22.7830   13.9520 C.2   240  ASP240      0.2598
     68  O         27.8200   21.9920   13.1780 O.2   240  ASP240     -0.2718
     69  CB        27.5540   24.9200   12.7720 C.3   240  ASP240      0.1424
     70  CG        27.2540   26.3820   12.9840 C.2   240  ASP240      0.3668
     71  OD1       26.1280   26.6910   13.4030 O.co2 240  ASP240     -0.2456
     72  OD2       28.0530   27.3040   12.7520 O.co2 240  ASP240     -0.2456
     73  N         26.2940   22.4850   14.7230 N.am  241  TYR241     -0.1962
     74  CA        25.5010   21.2750   14.5170 C.3   241  TYR241      0.1771
     75  C         24.4510   21.5030   13.4280 C.2   241  TYR241      0.2620
     76  O         24.7930   21.9620   12.3630 O.2   241  TYR241     -0.2715
     77  CB        24.8800   20.8120   15.8130 C.3   241  TYR241      0.0574
     78  CG        25.8770   20.3300   16.8340 C.ar  241  TYR241     -0.0198
     79  CD1       26.1330   18.9870   16.9880 C.ar  241  TYR241     -0.0009
     80  CD2       26.5050   21.2120   17.6760 C.ar  241  TYR241     -0.0009
     81  CE1       26.9580   18.5230   17.9540 C.ar  241  TYR241      0.0417
     82  CE2       27.3360   20.7680   18.6330 C.ar  241  TYR241      0.0417
     83  CZ        27.5650   19.4130   18.7630 C.ar  241  TYR241      0.1957
     84  OH        28.4260   18.9910   19.7150 O.3   241  TYR241     -0.2866
     85  N         23.1970   21.1660   13.6670 N.am  242  SER242     -0.1936
     86  CA        22.1600   21.1320   12.6100 C.3   242  SER242      0.2055
     87  C         21.1380   20.1140   12.9970 C.2   242  SER242      0.2643
     88  O         21.4200   18.9360   13.0320 O.2   242  SER242     -0.2714
     89  CB        22.6940   20.6670   11.2690 C.3   242  SER242      0.2130
     90  OG        23.3740   19.4510   11.4450 O.3   242  SER242     -0.2179
     91  N         19.9350   20.5580   13.2790 N.am  243  ALA243     -0.1963
     92  CA        18.9700   19.6310   13.8140 C.3   243  ALA243      0.1728
     93  C         19.4240   19.0770   15.1420 C.2   243  ALA243      0.2616
     94  O         18.8920   18.0860   15.5850 O.2   243  ALA243     -0.2715
     95  CB        18.7840   18.4980   12.8290 C.3   243  ALA243      0.0334
     96  N         20.3970   19.7070   15.7810 N.am  244  PHE244     -0.1960
     97  CA        20.9290   19.2110   17.0690 C.3   244  PHE244      0.1771
     98  C         19.8150   18.6290   17.9270 C.2   244  PHE244      0.2619
     99  O         19.8010   17.4360   18.1670 O.2   244  PHE244     -0.2715
    100  CB        21.6940   20.3160   17.8210 C.3   244  PHE244      0.0574
    101  CG        22.3790   19.8530   19.1070 C.ar  244  PHE244     -0.0200
    102  CD1       23.4430   18.9800   19.0830 C.ar  244  PHE244     -0.0042
    103  CD2       21.9720   20.3390   20.3260 C.ar  244  PHE244     -0.0042
    104  CE1       24.0460   18.6040   20.2390 C.ar  244  PHE244     -0.0003
    105  CE2       22.5750   19.9690   21.4560 C.ar  244  PHE244     -0.0003
    106  CZ        23.6080   19.0980   21.4210 C.ar  244  PHE244     -0.0000
    107  N         18.8730   19.4810   18.3360 N.am  245  ASP245     -0.1971
    108  CA        17.7000   19.1080   19.1310 C.3   245  ASP245      0.1709
    109  C         16.9740   17.8370   18.7160 C.2   245  ASP245      0.2293
    110  O         16.6260   17.0380   19.5480 O.2   245  ASP245     -0.2864
    111  CB        16.6830   20.2330   19.0340 C.3   245  ASP245      0.1436
    112  CG        16.1540   20.6810   20.3970 C.2   245  ASP245      0.3671
    113  OD1       16.3630   19.9510   21.4110 O.co2 245  ASP245     -0.2456
    114  OD2       15.4980   21.7550   20.5470 O.co2 245  ASP245     -0.2456
    115  N         12.1350   20.4090   21.4630 N.3   298  SER298     -0.1202
    116  CA        12.4580   21.8440   21.5780 C.3   298  SER298      0.2020
    117  C         11.4310   22.5700   22.4350 C.2   298  SER298      0.2619
    118  O         10.3160   22.7260   22.0170 O.2   298  SER298     -0.2717
    119  CB        12.4870   22.5170   20.2050 C.3   298  SER298      0.2103
    120  OG        11.6090   21.8640   19.2980 O.3   298  SER298     -0.2182
    121  N         11.8150   23.0020   23.6360 N.am  299  GLY299     -0.1956
    122  CA        10.9590   23.7890   24.5150 C.3   299  GLY299      0.1869
    123  C         10.2820   22.9980   25.6140 C.2   299  GLY299      0.2309
    124  O          9.4520   23.5170   26.3910 O.2   299  GLY299     -0.2863
    125  N         14.9490   22.2970   28.5260 N.3   303  THR303     -0.1203
    126  CA        15.4040   21.9490   27.1740 C.3   303  THR303      0.1994
    127  C         16.8630   22.3770   26.8880 C.2   303  THR303      0.2618
    128  O         17.6020   21.6380   26.2410 O.2   303  THR303     -0.2717
    129  CB        14.4100   22.4890   26.1010 C.3   303  THR303      0.1784
    130  OG1       14.7590   21.9760   24.8250 O.3   303  THR303     -0.2211
    131  CG2       14.5510   23.9400   25.8970 C.3   303  THR303      0.0376
    132  N         17.2690   23.5510   27.3830 N.am  304  SER304     -0.1951
    133  CA        18.5790   24.1130   27.1490 C.3   304  SER304      0.1924
    134  C         19.6560   23.4410   27.9800 C.2   304  SER304      0.2314
    135  O         20.7700   23.2750   27.5060 O.2   304  SER304     -0.2863
    136  CB        18.5830   25.6050   27.5060 C.3   304  SER304      0.2116
    137  OG        17.6670   26.3630   26.7150 O.3   304  SER304     -0.2180
    138  N         20.1970   19.7310   26.5240 N.3   307  ASN307     -0.1240
    139  CA        20.9290   19.8850   25.2870 C.3   307  ASN307      0.1653
    140  C         22.4150   20.3060   25.4630 C.2   307  ASN307      0.2266
    141  O         23.2580   20.0430   24.6100 O.2   307  ASN307     -0.2867
    142  CB        20.1610   20.8910   24.4400 C.3   307  ASN307      0.1155
    143  CG        19.0410   20.2210   23.6720 C.2   307  ASN307      0.2627
    144  OD1       18.2490   19.5180   24.2630 O.2   307  ASN307     -0.2716
    145  ND2       19.0000   20.3910   22.3370 N.am  307  ASN307     -0.0877
    146  N         25.5740   26.4850   24.8250 N.3   336  TYR336     -0.1227
    147  CA        24.2440   26.9010   25.2080 C.3   336  TYR336      0.1736
    148  C         23.3490   26.1060   24.2610 C.2   336  TYR336      0.2596
    149  O         23.1180   26.4980   23.1390 O.2   336  TYR336     -0.2718
    150  CB        24.1070   28.3950   25.0130 C.3   336  TYR336      0.0548
    151  CG        22.9750   29.0020   25.8240 C.ar  336  TYR336     -0.0200
    152  CD1       23.2100   29.9410   26.8100 C.ar  336  TYR336     -0.0009
    153  CD2       21.6600   28.6300   25.5890 C.ar  336  TYR336     -0.0009
    154  CE1       22.1700   30.4840   27.5370 C.ar  336  TYR336      0.0417
    155  CE2       20.6170   29.1620   26.3170 C.ar  336  TYR336      0.0417
    156  CZ        20.8670   30.0780   27.2770 C.ar  336  TYR336      0.1957
    157  OH        19.7810   30.5810   27.9590 O.3   336  TYR336     -0.2866
    158  N         22.8930   24.9420   24.7120 N.am  337  GLY337     -0.1942
    159  CA        22.3390   23.8940   23.8470 C.3   337  GLY337      0.2014
    160  C         23.0870   23.6620   22.5560 C.2   337  GLY337      0.2638
    161  O         24.2020   23.1670   22.5670 O.2   337  GLY337     -0.2714
    162  N         22.4530   24.0280   21.4610 N.am  338  ASP338     -0.1971
    163  CA        23.0010   24.0330   20.0970 C.3   338  ASP338      0.1709
    164  C         24.4200   24.6800   19.9800 C.2   338  ASP338      0.2293
    165  O         25.3590   24.0680   19.5140 O.2   338  ASP338     -0.2864
    166  CB        21.9900   24.8040   19.1910 C.3   338  ASP338      0.1436
    167  CG        22.1600   24.5220   17.6910 C.2   338  ASP338      0.3671
    168  OD1       22.1690   23.3250   17.2870 O.co2 338  ASP338     -0.2456
    169  OD2       22.2780   25.4490   16.8330 O.co2 338  ASP338     -0.2456
@<TRIPOS>BOND
     1    30    31    1
     2    31    32    1
     3    31    34    1
     4    32    33    2
     5    34    35    1
     6    35    36    1
     7    36    37    1
     8    37    38    1
     9    22    21    2
    10    21    20    1
    11    23    20    1
    12    23    24    1
    13     1     2    1
    14    20    19    1
    15     2     3    1
    16     2     5    1
    17    26    25    1
    18    26    27    2
    19    25    24    1
    20    29    27    1
    21    27    28    1
    22    89    90    1
    23    89    86    1
    24     3     4    2
    25     5     6    1
    26    76    75    2
    27    86    87    1
    28    86    85    1
    29    72    70   ar
    30    69    70    1
    31    69    66    1
    32     6     7    1
    33    39    40    1
    34    95    92    1
    35    70    71   ar
    36    87    88    2
    37    87    91   am
    38    68    67    2
    39    91    92    1
    40    75    85   am
    41    75    74    1
    42     7     8    1
    43    92    93    1
    44    57    55    1
    45    44    45    1
    46    44    43    1
    47    67    66    1
    48    67    73   am
    49    40    43    1
    50    40    41    1
    51    66    65    1
    52    13    12    2
    53    74    73    1
    54    74    77    1
    55    56    54    1
    56    45    46    1
    57    41    42    2
    58    41    50   am
    59     8     9    1
    60    93    94    2
    61    93    96   am
    62    50    51    1
    63    46    47    2
    64    12    11    1
    65    55    54    1
    66    10    11    1
    67    54    51    1
    68    96    97    1
    69    77    78    1
    70    51    52    1
    71    11    14    1
    72    14    15    1
    73    47    49    1
    74    47    48    1
    75   169   167   ar
    76    78    79   ar
    77    78    80   ar
    78    79    81   ar
    79    97   100    1
    80    97    98    1
    81    52    53    2
    82    52    58   am
    83   168   167   ar
    84    15    16    1
    85    80    82   ar
    86   167   166    1
    87   100   101    1
    88    98    99    2
    89    98   107   am
    90    81    83   ar
    91    58    59    1
    92    16    17    1
    93   107   108    1
    94    82    83   ar
    95   109   108    1
    96   109   110    2
    97    83    84    1
    98   111   108    1
    99   111   112    1
   100   102   101   ar
   101   102   104   ar
   102   101   103   ar
   103   166   163    1
   104    18    17    1
   105   120   119    1
   106    59    60    1
   107    59    62    1
   108   165   164    2
   109    61    60    2
   110    64    62    1
   111   164   163    1
   112    62    63    1
   113   163   162    1
   114   119   116    1
   115   104   106   ar
   116   103   105   ar
   117   112   114   ar
   118   112   113   ar
   119   106   105   ar
   120   162   160   am
   121   115   116    1
   122   116   117    1
   123   118   117    2
   124   145   143   am
   125   117   121   am
   126   160   161    2
   127   160   159    1
   128   149   148    2
   129   121   122    1
   130   143   144    2
   131   143   142    1
   132   159   158    1
   133   148   158   am
   134   148   147    1
   135   142   139    1
   136   122   123    1
   137   141   140    2
   138   130   129    1
   139   146   147    1
   140   150   147    1
   141   150   151    1
   142   139   140    1
   143   139   138    1
   144   153   151   ar
   145   153   155   ar
   146   123   124    2
   147   151   152   ar
   148   131   129    1
   149   129   126    1
   150   128   127    2
   151   155   156   ar
   152   137   136    1
   153   152   154   ar
   154   127   126    1
   155   127   132   am
   156   133   132    1
   157   133   136    1
   158   133   134    1
   159   126   125    1
   160   156   154   ar
   161   156   157    1
   162   135   134    2
