@<TRIPOS>MOLECULE
tmp/2e9uA00.pdb
 154 145 0 0 0
SMALL
GASTEIGER

@<TRIPOS>ATOM
      1  N         -2.4590    4.5390  -22.8160 N.3    14  LEU14      -0.1231
      2  CA        -1.8420    5.4220  -21.8340 C.3    14  LEU14       0.1693
      3  C         -1.7310    4.7430  -20.4750 C.2    14  LEU14       0.2593
      4  O         -0.6800    4.7740  -19.8360 O.2    14  LEU14      -0.2718
      5  CB        -2.6650    6.7050  -21.7030 C.3    14  LEU14       0.0284
      6  CG        -2.7750    7.5440  -22.9750 C.3    14  LEU14       0.0019
      7  CD1       -3.6910    8.7350  -22.7370 C.3    14  LEU14       0.0001
      8  CD2       -1.3870    8.0030  -23.3920 C.3    14  LEU14       0.0001
      9  N         -2.8280    4.1330  -20.0390 N.am   15  GLY15      -0.1942
     10  CA        -2.8440    3.4510  -18.7610 C.3    15  GLY15       0.2014
     11  C         -3.7970    2.2750  -18.7870 C.2    15  GLY15       0.2638
     12  O         -4.4730    2.0420  -19.7880 O.2    15  GLY15      -0.2714
     13  N         -3.8560    1.5360  -17.6850 N.am   16  GLU16      -0.1977
     14  CA        -4.7320    0.3740  -17.5850 C.3    16  GLU16       0.1602
     15  C         -4.8710   -0.0720  -16.1290 C.2    16  GLU16       0.2287
     16  O         -4.1470    0.4080  -15.2540 O.2    16  GLU16      -0.2864
     17  CB        -4.1760   -0.7690  -18.4430 C.3    16  GLU16       0.0415
     18  CG        -2.7570   -1.1880  -18.0830 C.3    16  GLU16       0.1163
     19  CD        -2.0770   -1.9700  -19.1960 C.2    16  GLU16       0.3649
     20  OE1       -2.6550   -2.9780  -19.6640 O.co2  16  GLU16      -0.2457
     21  OE2       -0.9600   -1.5790  -19.6020 O.co2  16  GLU16      -0.2457
     22  N        -10.3260   -1.4250  -14.0970 N.3    19  TYR19      -0.1241
     23  CA       -11.3960   -0.9270  -14.9570 C.3    19  TYR19       0.1605
     24  C        -11.2330   -1.4650  -16.3770 C.2    19  TYR19       0.2264
     25  O        -12.2060   -1.8610  -17.0240 O.2    19  TYR19      -0.2867
     26  CB       -11.3790    0.6040  -14.9930 C.3    19  TYR19       0.0534
     27  CG       -10.0260    1.1880  -15.3430 C.ar   19  TYR19      -0.0201
     28  CD1       -9.0070    1.2420  -14.4000 C.ar   19  TYR19      -0.0009
     29  CD2       -9.7610    1.6650  -16.6210 C.ar   19  TYR19      -0.0009
     30  CE1       -7.7630    1.7570  -14.7170 C.ar   19  TYR19       0.0417
     31  CE2       -8.5180    2.1790  -16.9490 C.ar   19  TYR19       0.0417
     32  CZ        -7.5230    2.2240  -15.9930 C.ar   19  TYR19       0.1957
     33  OH        -6.2830    2.7390  -16.3060 O.3    19  TYR19      -0.2866
     34  N         -6.8590    2.6010  -20.7260 N.3    22  VAL22      -0.1245
     35  CA        -7.0320    3.9890  -21.1200 C.3    22  VAL22       0.1561
     36  C         -6.1730    4.1960  -22.3610 C.2    22  VAL22       0.2260
     37  O         -4.9460    4.1050  -22.2990 O.2    22  VAL22      -0.2867
     38  CB        -6.5750    4.9530  -20.0050 C.3    22  VAL22       0.0252
     39  CG1       -6.6430    6.3860  -20.4960 C.3    22  VAL22       0.0019
     40  CG2       -7.4590    4.7830  -18.7810 C.3    22  VAL22       0.0019
     41  N         -7.9580   11.4940  -24.2920 N.3    35  ALA35      -0.1245
     42  CA        -7.7940   10.1960  -23.6550 C.3    35  ALA35       0.1562
     43  C         -9.1390    9.4790  -23.6150 C.2    35  ALA35       0.2260
     44  O        -10.1560   10.0670  -23.2500 O.2    35  ALA35      -0.2867
     45  CB        -7.2480   10.3730  -22.2440 C.3    35  ALA35       0.0290
     46  N        -11.2620    6.3260  -22.0450 N.3    37  LYS37      -0.1245
     47  CA       -11.3140    5.3160  -20.9980 C.3    37  LYS37       0.1561
     48  C        -12.2230    4.1770  -21.4380 C.2    37  LYS37       0.2260
     49  O        -13.4250    4.3660  -21.6370 O.2    37  LYS37      -0.2867
     50  CB       -11.8370    5.9200  -19.6920 C.3    37  LYS37       0.0271
     51  CG       -11.7940    4.9600  -18.5140 C.3    37  LYS37       0.0035
     52  CD       -12.2100    5.6400  -17.2220 C.3    37  LYS37       0.0206
     53  CE       -12.0470    4.7060  -16.0350 C.3    37  LYS37       0.1093
     54  NZ       -12.4120    5.3730  -14.7560 N.3    37  LYS37      -0.1314
     55  N         -9.3380   17.1110  -14.6360 N.3    67  VAL67      -0.1245
     56  CA        -9.4610   16.5520  -15.9720 C.3    67  VAL67       0.1561
     57  C        -10.8370   16.8670  -16.5470 C.2    67  VAL67       0.2260
     58  O        -11.8600   16.5600  -15.9360 O.2    67  VAL67      -0.2867
     59  CB        -9.2580   15.0340  -15.9570 C.3    67  VAL67       0.0252
     60  CG1       -9.6210   14.4530  -17.3110 C.3    67  VAL67       0.0019
     61  CG2       -7.8170   14.7180  -15.6120 C.3    67  VAL67       0.0019
     62  N        -11.9500   11.6840  -22.2170 N.3    83  LEU83      -0.1231
     63  CA       -11.3800   12.5540  -21.2030 C.3    83  LEU83       0.1693
     64  C        -10.2020   13.3680  -21.7090 C.2    83  LEU83       0.2592
     65  O         -9.6030   13.0570  -22.7420 O.2    83  LEU83      -0.2718
     66  CB       -10.9450   11.7100  -20.0060 C.3    83  LEU83       0.0284
     67  CG       -12.0800   10.9600  -19.3040 C.3    83  LEU83       0.0019
     68  CD1      -11.5340    9.7280  -18.6050 C.3    83  LEU83       0.0001
     69  CD2      -12.7820   11.8960  -18.3300 C.3    83  LEU83       0.0001
     70  N         -9.8690   14.4120  -20.9600 N.am   84  GLU84      -0.1966
     71  CA        -8.7710   15.2880  -21.3210 C.3    84  GLU84       0.1733
     72  C         -7.4690   14.5150  -21.4090 C.2    84  GLU84       0.2616
     73  O         -7.1850   13.6490  -20.5750 O.2    84  GLU84      -0.2715
     74  CB        -8.6190   16.4090  -20.2910 C.3    84  GLU84       0.0429
     75  CG        -7.8560   17.6120  -20.8150 C.3    84  GLU84       0.1163
     76  CD        -7.4420   18.5690  -19.7210 C.2    84  GLU84       0.3649
     77  OE1       -8.2870   18.8950  -18.8580 O.co2  84  GLU84      -0.2457
     78  OE2       -6.2700   19.0010  -19.7320 O.co2  84  GLU84      -0.2457
     79  N         -6.6830   14.8290  -22.4310 N.am   85  TYR85      -0.1960
     80  CA        -5.3960   14.1890  -22.6270 C.3    85  TYR85       0.1771
     81  C         -4.3300   15.0620  -21.9800 C.2    85  TYR85       0.2620
     82  O         -4.2330   16.2530  -22.2720 O.2    85  TYR85      -0.2715
     83  CB        -5.0950   14.0370  -24.1160 C.3    85  TYR85       0.0574
     84  CG        -3.6860   13.5730  -24.3820 C.ar   85  TYR85      -0.0198
     85  CD1       -3.2210   12.3760  -23.8560 C.ar   85  TYR85      -0.0009
     86  CD2       -2.8160   14.3350  -25.1480 C.ar   85  TYR85      -0.0009
     87  CE1       -1.9300   11.9520  -24.0860 C.ar   85  TYR85       0.0417
     88  CE2       -1.5200   13.9190  -25.3840 C.ar   85  TYR85       0.0417
     89  CZ        -1.0840   12.7270  -24.8510 C.ar   85  TYR85       0.1957
     90  OH         0.2070   12.3030  -25.0790 O.3    85  TYR85      -0.2866
     91  N         -3.5360   14.4640  -21.0990 N.am   86  CYS86      -0.1954
     92  CA        -2.4820   15.1870  -20.3980 C.3    86  CYS86       0.1843
     93  C         -1.1410   14.5540  -20.7720 C.2    86  CYS86       0.2626
     94  O         -0.6810   13.6270  -20.1130 O.2    86  CYS86      -0.2714
     95  CB        -2.7160   15.0920  -18.8810 C.3    86  CYS86       0.0997
     96  SG        -4.4270   15.4110  -18.3460 S.3    86  CYS86      -0.0797
     97  N         -0.5170   15.0590  -21.8330 N.am   87  SER87      -0.1950
     98  CA         0.7510   14.5130  -22.3140 C.3    87  SER87       0.1924
     99  C          1.8790   14.4970  -21.2800 C.2    87  SER87       0.2314
    100  O          2.8620   13.7720  -21.4390 O.2    87  SER87      -0.2863
    101  CB         1.2110   15.2780  -23.5550 C.3    87  SER87       0.2116
    102  OG         1.4830   16.6350  -23.2500 O.3    87  SER87      -0.2180
    103  N          1.8760   13.2010  -18.4560 N.3    89  GLY89      -0.1210
    104  CA         1.9390   11.9230  -17.7680 C.3    89  GLY89       0.1956
    105  C          1.5810   12.0120  -16.2910 C.2    89  GLY89       0.2611
    106  O          0.9910   12.9920  -15.8450 O.2    89  GLY89      -0.2717
    107  N          1.9500   10.9830  -15.5380 N.am   90  GLU90      -0.1979
    108  CA         1.6750   10.9090  -14.1080 C.3    90  GLU90       0.1602
    109  C          2.6870   11.6360  -13.2240 C.2    90  GLU90       0.2287
    110  O          3.8930   11.6020  -13.4730 O.2    90  GLU90      -0.2864
    111  CB         1.6110    9.4460  -13.6650 C.3    90  GLU90       0.0415
    112  CG         0.3760    8.6960  -14.1220 C.3    90  GLU90       0.1163
    113  CD         0.4080    7.2350  -13.7130 C.2    90  GLU90       0.3649
    114  OE1        1.0950    6.9090  -12.7200 O.co2  90  GLU90      -0.2457
    115  OE2       -0.2630    6.4130  -14.3740 O.co2  90  GLU90      -0.2457
    116  N         -0.3360    8.5740   -8.8350 N.3   133  GLU133     -0.1231
    117  CA        -0.7240    7.9120  -10.0760 C.3   133  GLU133      0.1699
    118  C         -2.0110    8.4670  -10.6810 C.2   133  GLU133      0.2592
    119  O         -2.2980    8.2210  -11.8500 O.2   133  GLU133     -0.2718
    120  CB        -0.8390    6.3820   -9.9080 C.3   133  GLU133      0.0402
    121  CG        -1.2160    5.8450   -8.5420 C.3   133  GLU133      0.1161
    122  CD        -0.0810    5.9280   -7.5290 C.2   133  GLU133      0.3649
    123  OE1        0.0770    6.9910   -6.9070 O.co2 133  GLU133     -0.2457
    124  OE2        0.6570    4.9290   -7.3550 O.co2 133  GLU133     -0.2457
    125  N         -2.7720    9.2270   -9.8970 N.am  134  ASN134     -0.1974
    126  CA        -4.0230    9.8280  -10.3690 C.3   134  ASN134      0.1688
    127  C         -3.8860   11.3150  -10.6790 C.2   134  ASN134      0.2292
    128  O         -4.8330   11.9400  -11.1550 O.2   134  ASN134     -0.2864
    129  CB        -5.1350    9.6910   -9.3270 C.3   134  ASN134      0.1181
    130  CG        -5.7390    8.3220   -9.3000 C.2   134  ASN134      0.2629
    131  OD1       -5.8540    7.6610  -10.3370 O.2   134  ASN134     -0.2716
    132  ND2       -6.1560    7.8840   -8.1180 N.am  134  ASN134     -0.0877
    133  N         -2.3730   13.9040  -12.9780 N.3   136  LEU136     -0.1245
    134  CA        -1.7620   14.0210  -14.2980 C.3   136  LEU136      0.1561
    135  C         -1.2050   15.3990  -14.6090 C.2   136  LEU136      0.2260
    136  O         -1.5550   16.3870  -13.9640 O.2   136  LEU136     -0.2867
    137  CB        -2.7780   13.6220  -15.3720 C.3   136  LEU136      0.0270
    138  CG        -3.4640   12.2780  -15.0950 C.3   136  LEU136      0.0019
    139  CD1       -4.4780   11.9910  -16.1840 C.3   136  LEU136      0.0001
    140  CD2       -2.4180   11.1680  -15.0190 C.3   136  LEU136      0.0001
    141  N         -7.4460   13.4300  -11.6810 N.3   146  SER146     -0.1202
    142  CA        -8.1650   12.5290  -12.5740 C.3   146  SER146      0.2020
    143  C         -8.7350   11.2950  -11.9070 C.2   146  SER146      0.2618
    144  O         -8.4720   11.0190  -10.7330 O.2   146  SER146     -0.2717
    145  CB        -7.2500   12.0570  -13.7060 C.3   146  SER146      0.2103
    146  OG        -6.3910   11.0150  -13.2580 O.3   146  SER146     -0.2182
    147  N         -9.5180   10.5570  -12.6910 N.am  147  ASP147     -0.1973
    148  CA       -10.1370    9.3070  -12.2710 C.3   147  ASP147      0.1709
    149  C        -11.1250    9.4560  -11.1170 C.2   147  ASP147      0.2293
    150  O        -10.7620    9.3350   -9.9390 O.2   147  ASP147     -0.2864
    151  CB        -9.0400    8.3030  -11.9150 C.3   147  ASP147      0.1436
    152  CG        -9.5130    6.8660  -12.0090 C.2   147  ASP147      0.3671
    153  OD1       -8.6520    5.9610  -12.0500 O.co2 147  ASP147     -0.2456
    154  OD2      -10.7420    6.6420  -12.0320 O.co2 147  ASP147     -0.2456
@<TRIPOS>BOND
     1    88    86   ar
     2    88    89   ar
     3    86    84   ar
     4    90    89    1
     5    89    87   ar
     6    84    83    1
     7    84    85   ar
     8    41    42    1
     9    83    80    1
    10    87    85   ar
    11    42    43    1
    12    42    45    1
    13    43    44    2
    14   101   102    1
    15   101    98    1
    16     8     6    1
    17     6     7    1
    18     6     5    1
    19     1     2    1
    20    65    64    2
    21    80    79    1
    22    80    81    1
    23    79    72   am
    24    36    37    2
    25    36    35    1
    26    98    97    1
    27    98    99    1
    28    82    81    2
    29    62    63    1
    30    46    47    1
    31    81    91   am
    32     2     5    1
    33     2     3    1
    34    97    93   am
    35    64    63    1
    36    64    70   am
    37    49    48    2
    38   100    99    2
    39    48    47    1
    40    72    71    1
    41    72    73    2
    42    71    70    1
    43    71    74    1
    44    63    66    1
    45    35    34    1
    46    35    38    1
    47    91    92    1
    48    47    50    1
    49    75    74    1
    50    75    76    1
    51    93    92    1
    52    93    94    2
    53    39    38    1
    54     3     9   am
    55     3     4    2
    56    92    95    1
    57     9    10    1
    58    66    67    1
    59    38    40    1
    60    12    11    2
    61    78    76   ar
    62    76    77   ar
    63    50    51    1
    64    20    19   ar
    65    21    19   ar
    66    67    68    1
    67    67    69    1
    68    19    18    1
    69    95    96    1
    70    11    10    1
    71    11    13   am
    72    51    52    1
    73   103   104    1
    74    17    18    1
    75    17    14    1
    76   104   105    1
    77    13    14    1
    78    14    15    1
    79    60    59    1
    80    52    53    1
    81    25    24    2
    82    31    29   ar
    83    31    32   ar
    84    29    27   ar
    85    57    56    1
    86    57    58    2
    87    24    23    1
    88    33    32    1
    89   105   106    2
    90   105   107   am
    91   139   138    1
    92    15    16    2
    93    53    54    1
    94    32    30   ar
    95    56    59    1
    96    56    55    1
    97    59    61    1
    98   107   108    1
    99   137   138    1
   100   137   134    1
   101    27    26    1
   102    27    28   ar
   103   138   140    1
   104    26    23    1
   105    23    22    1
   106    30    28   ar
   107   135   134    1
   108   135   136    2
   109   115   113   ar
   110   134   133    1
   111   112   113    1
   112   112   111    1
   113   108   111    1
   114   108   109    1
   115   113   114   ar
   116   145   146    1
   117   145   142    1
   118   110   109    2
   119   147   148    1
   120   147   143   am
   121   142   143    1
   122   142   141    1
   123   148   151    1
   124   148   149    1
   125   153   152   ar
   126   154   152   ar
   127   152   151    1
   128   143   144    2
   129   119   118    2
   130   128   127    2
   131   149   150    2
   132   118   117    1
   133   118   125   am
   134   127   126    1
   135   126   125    1
   136   126   129    1
   137   131   130    2
   138   117   120    1
   139   117   116    1
   140   120   121    1
   141   129   130    1
   142   130   132   am
   143   121   122    1
   144   122   124   ar
   145   122   123   ar
