@<TRIPOS>MOLECULE
tmp/2e9vB00.pdb
 178 167 0 0 0
SMALL
GASTEIGER

@<TRIPOS>ATOM
      1  N         23.6760  -11.3720   30.4700 N.3    12  GLN12      -0.1231
      2  CA        24.2480  -10.5370   31.5280 C.3    12  GLN12       0.1698
      3  C         23.5890   -9.1680   31.6690 C.2    12  GLN12       0.2593
      4  O         23.0350   -8.6250   30.7110 O.2    12  GLN12      -0.2718
      5  CB        25.7480  -10.3440   31.2970 C.3    12  GLN12       0.0381
      6  CG        26.0860   -9.5310   30.0670 C.3    12  GLN12       0.0905
      7  CD        27.5330   -9.0790   30.0540 C.2    12  GLN12       0.2608
      8  OE1       28.4520   -9.8910   29.9520 O.2    12  GLN12      -0.2717
      9  NE2       27.7410   -7.7750   30.1660 N.am   12  GLN12      -0.0878
     10  N         23.6650   -8.6090   32.8740 N.am   13  THR13      -0.1939
     11  CA        23.0740   -7.3020   33.1550 C.3    13  THR13       0.2028
     12  C         23.9590   -6.1760   32.6260 C.2    13  THR13       0.2642
     13  O         25.1860   -6.2830   32.6240 O.2    13  THR13      -0.2714
     14  CB        22.8740   -7.0880   34.6680 C.3    13  THR13       0.1808
     15  OG1       22.0010   -5.9720   34.8820 O.3    13  THR13      -0.2208
     16  CG2       24.2150   -6.8050   35.3430 C.3    13  THR13       0.0379
     17  N         23.3250   -5.0960   32.1800 N.am   14  LEU14      -0.1963
     18  CA        24.0480   -3.9490   31.6470 C.3    14  LEU14       0.1728
     19  C         23.7440   -2.6990   32.4600 C.2    14  LEU14       0.2616
     20  O         24.6010   -1.8340   32.6260 O.2    14  LEU14      -0.2715
     21  CB        23.6570   -3.7080   30.1870 C.3    14  LEU14       0.0311
     22  CG        23.9040   -4.8510   29.1990 C.3    14  LEU14       0.0022
     23  CD1       23.3470   -4.4550   27.8330 C.3    14  LEU14       0.0001
     24  CD2       25.3890   -5.1640   29.1140 C.3    14  LEU14       0.0001
     25  N         22.5180   -2.6080   32.9600 N.am   15  GLY15      -0.1955
     26  CA        22.1300   -1.4500   33.7400 C.3    15  GLY15       0.1869
     27  C         20.6810   -1.5150   34.1680 C.2    15  GLY15       0.2309
     28  O         19.7730   -1.3650   33.3570 O.2    15  GLY15      -0.2863
     29  N         12.8260    1.0190   36.9740 N.3    19  TYR19      -0.1241
     30  CA        11.8810    0.7560   35.8960 C.3    19  TYR19       0.1605
     31  C         11.9670   -0.7160   35.5210 C.2    19  TYR19       0.2264
     32  O         10.9560   -1.3640   35.2360 O.2    19  TYR19      -0.2867
     33  CB        12.1850    1.6290   34.6690 C.3    19  TYR19       0.0534
     34  CG        13.6260    1.6050   34.1950 C.ar   19  TYR19      -0.0201
     35  CD1       14.6080    2.3340   34.8580 C.ar   19  TYR19      -0.0009
     36  CD2       14.0030    0.8560   33.0860 C.ar   19  TYR19      -0.0009
     37  CE1       15.9240    2.3170   34.4260 C.ar   19  TYR19       0.0417
     38  CE2       15.3180    0.8320   32.6500 C.ar   19  TYR19       0.0417
     39  CZ        16.2720    1.5640   33.3250 C.ar   19  TYR19       0.1957
     40  OH        17.5820    1.5400   32.9070 O.3    19  TYR19      -0.2866
     41  N         18.4170   -3.4860   31.8570 N.3    22  VAL22      -0.1245
     42  CA        18.8380   -3.7030   30.4830 C.3    22  VAL22       0.1561
     43  C         19.7600   -4.9150   30.4740 C.2    22  VAL22       0.2260
     44  O         20.7660   -4.9460   31.1850 O.2    22  VAL22      -0.2867
     45  CB        19.5920   -2.4730   29.9120 C.3    22  VAL22       0.0252
     46  CG1       20.0510   -2.7510   28.4860 C.3    22  VAL22       0.0019
     47  CG2       18.6840   -1.2530   29.9400 C.3    22  VAL22       0.0019
     48  N         20.3830   -5.4870   22.9800 N.3    35  ALA35      -0.1245
     49  CA        20.1820   -5.0820   24.3590 C.3    35  ALA35       0.1562
     50  C         18.6860   -5.1020   24.5590 C.2    35  ALA35       0.2260
     51  O         17.9340   -4.7740   23.6450 O.2    35  ALA35      -0.2867
     52  CB        20.7190   -3.6910   24.5830 C.3    35  ALA35       0.0290
     53  N         15.4800   -3.9330   27.1980 N.3    37  LYS37      -0.1245
     54  CA        15.0160   -3.1910   28.3540 C.3    37  LYS37       0.1561
     55  C         13.8050   -3.8860   28.9640 C.2    37  LYS37       0.2260
     56  O         12.7040   -3.8410   28.4120 O.2    37  LYS37      -0.2867
     57  CB        14.6440   -1.7550   27.9700 C.3    37  LYS37       0.0271
     58  CG        13.7650   -1.0680   29.0110 C.3    37  LYS37       0.0035
     59  CD        13.5900    0.4090   28.7440 C.3    37  LYS37       0.0206
     60  CE        14.8930    1.1510   28.9540 C.3    37  LYS37       0.1093
     61  NZ        14.7250    2.6130   28.7740 N.3    37  LYS37      -0.1314
     62  N          7.8780    5.7040   24.9650 N.3    54  GLU54      -0.1245
     63  CA         9.2650    5.4220   24.6230 C.3    54  GLU54       0.1567
     64  C          9.3590    4.5820   23.3480 C.2    54  GLU54       0.2260
     65  O         10.3400    4.6690   22.6050 O.2    54  GLU54      -0.2867
     66  CB         9.9680    4.6900   25.7760 C.3    54  GLU54       0.0388
     67  CG        11.4870    4.6140   25.6200 C.3    54  GLU54       0.1160
     68  CD        12.1650    3.7440   26.6700 C.2    54  GLU54       0.3649
     69  OE1       13.4160    3.7000   26.6850 O.co2  54  GLU54      -0.2457
     70  OE2       11.4520    3.0980   27.4730 O.co2  54  GLU54      -0.2457
     71  N         20.6320    5.0300   19.0210 N.3    67  VAL67      -0.1245
     72  CA        20.5020    3.5940   19.2250 C.3    67  VAL67       0.1561
     73  C         19.3210    3.0630   18.4180 C.2    67  VAL67       0.2260
     74  O         18.2270    3.6140   18.4780 O.2    67  VAL67      -0.2867
     75  CB        20.2700    3.2750   20.7270 C.3    67  VAL67       0.0252
     76  CG1       20.1050    1.7780   20.9340 C.3    67  VAL67       0.0019
     77  CG2       21.4310    3.7960   21.5420 C.3    67  VAL67       0.0019
     78  N         16.6910   -3.2650   21.7850 N.3    83  LEU83      -0.1231
     79  CA        17.4770   -2.1420   21.3400 C.3    83  LEU83       0.1693
     80  C         18.8780   -2.5560   20.9690 C.2    83  LEU83       0.2592
     81  O         19.3990   -3.5700   21.4410 O.2    83  LEU83      -0.2718
     82  CB        17.5230   -1.0800   22.4450 C.3    83  LEU83       0.0284
     83  CG        16.1700   -0.4750   22.8260 C.3    83  LEU83       0.0019
     84  CD1       16.1940    0.0750   24.2520 C.3    83  LEU83       0.0001
     85  CD2       15.8300    0.6060   21.8300 C.3    83  LEU83       0.0001
     86  N         19.4880   -1.7340   20.1290 N.am   84  GLU84      -0.1966
     87  CA        20.8350   -1.9690   19.6590 C.3    84  GLU84       0.1733
     88  C         21.8310   -2.1420   20.7860 C.2    84  GLU84       0.2616
     89  O         21.8350   -1.3950   21.7610 O.2    84  GLU84      -0.2715
     90  CB        21.2820   -0.8090   18.7840 C.3    84  GLU84       0.0429
     91  CG        22.6440   -0.9980   18.1680 C.3    84  GLU84       0.1163
     92  CD        23.0620    0.1890   17.3190 C.2    84  GLU84       0.3649
     93  OE1       22.2860    1.1570   17.2200 O.co2  84  GLU84      -0.2457
     94  OE2       24.1690    0.1430   16.7500 O.co2  84  GLU84      -0.2457
     95  N         22.6850   -3.1390   20.6390 N.am   85  TYR85      -0.1960
     96  CA        23.7190   -3.3950   21.6170 C.3    85  TYR85       0.1771
     97  C         24.9270   -2.5530   21.2010 C.2    85  TYR85       0.2620
     98  O         25.3630   -2.5930   20.0480 O.2    85  TYR85      -0.2715
     99  CB        24.0750   -4.8800   21.6150 C.3    85  TYR85       0.0574
    100  CG        25.2980   -5.2360   22.4150 C.ar   85  TYR85      -0.0198
    101  CD1       25.4070   -4.8840   23.7590 C.ar   85  TYR85      -0.0009
    102  CD2       26.3420   -5.9350   21.8310 C.ar   85  TYR85      -0.0009
    103  CE1       26.5300   -5.2220   24.4980 C.ar   85  TYR85       0.0417
    104  CE2       27.4640   -6.2800   22.5570 C.ar   85  TYR85       0.0417
    105  CZ        27.5540   -5.9170   23.8920 C.ar   85  TYR85       0.1957
    106  OH        28.6890   -6.2290   24.5990 O.3    85  TYR85      -0.2866
    107  N         25.4480   -1.7710   22.1350 N.am   86  CYS86      -0.1954
    108  CA        26.6080   -0.9370   21.8670 C.3    86  CYS86       0.1843
    109  C         27.7130   -1.4700   22.7750 C.2    86  CYS86       0.2626
    110  O         27.8360   -1.0660   23.9360 O.2    86  CYS86      -0.2714
    111  CB        26.2740    0.5220   22.1840 C.3    86  CYS86       0.0997
    112  SG        24.8250    1.1480   21.2910 S.3    86  CYS86      -0.0797
    113  N         28.5080   -2.3860   22.2340 N.am   87  SER87      -0.1950
    114  CA        29.5730   -3.0390   22.9880 C.3    87  SER87       0.1924
    115  C         30.6230   -2.1260   23.6070 C.2    87  SER87       0.2314
    116  O         31.3720   -2.5510   24.4870 O.2    87  SER87      -0.2863
    117  CB        30.2550   -4.0900   22.1140 C.3    87  SER87       0.2116
    118  OG        30.8440   -3.5140   20.9650 O.3    87  SER87      -0.2180
    119  N         30.0080    0.4280   25.4540 N.3    89  GLY89      -0.1210
    120  CA        29.5600    0.9030   26.7520 C.3    89  GLY89       0.1956
    121  C         29.2230    2.3810   26.8530 C.2    89  GLY89       0.2611
    122  O         29.2240    3.1060   25.8550 O.2    89  GLY89      -0.2717
    123  N         28.9420    2.8320   28.0750 N.am   90  GLU90      -0.1979
    124  CA        28.5780    4.2300   28.3250 C.3    90  GLU90       0.1602
    125  C         29.7230    5.2090   28.1500 C.2    90  GLU90       0.2287
    126  O         30.8820    4.8870   28.4200 O.2    90  GLU90      -0.2864
    127  CB        28.0530    4.4200   29.7540 C.3    90  GLU90       0.0415
    128  CG        26.9270    3.5040   30.1890 C.3    90  GLU90       0.1163
    129  CD        26.2780    3.9900   31.4730 C.2    90  GLU90       0.3649
    130  OE1       27.0030    4.5550   32.3240 O.co2  90  GLU90      -0.2457
    131  OE2       25.0520    3.8160   31.6350 O.co2  90  GLU90      -0.2457
    132  N         31.5820    5.9810   31.4860 N.3    93  ASP93      -0.1239
    133  CA        32.7500    5.1780   31.8240 C.3    93  ASP93       0.1674
    134  C         34.0530    5.5250   31.1120 C.2    93  ASP93       0.2266
    135  O         35.0850    4.9170   31.3850 O.2    93  ASP93      -0.2867
    136  CB        32.4270    3.6930   31.6360 C.3    93  ASP93       0.1410
    137  CG        31.5850    3.1360   32.7720 C.2    93  ASP93       0.3668
    138  OD1       31.1470    1.9620   32.6900 O.co2  93  ASP93      -0.2456
    139  OD2       31.3690    3.8800   33.7520 O.co2  93  ASP93      -0.2456
    140  N         25.5740    8.9060   30.8910 N.3   133  GLU133     -0.1231
    141  CA        25.0120    7.5890   31.1560 C.3   133  GLU133      0.1699
    142  C         24.0340    7.1700   30.0520 C.2   133  GLU133      0.2592
    143  O         23.7010    5.9980   29.9450 O.2   133  GLU133     -0.2718
    144  CB        24.2800    7.5790   32.5050 C.3   133  GLU133      0.0402
    145  CG        25.1460    7.9560   33.6960 C.3   133  GLU133      0.1161
    146  CD        24.9830    9.4030   34.1250 C.2   133  GLU133      0.3649
    147  OE1       25.1950   10.3120   33.2920 O.co2 133  GLU133     -0.2457
    148  OE2       24.6370    9.6320   35.3100 O.co2 133  GLU133     -0.2457
    149  N         23.5890    8.1340   29.2410 N.am  134  ASN134     -0.1974
    150  CA        22.6360    7.8940   28.1470 C.3   134  ASN134      0.1688
    151  C         23.2790    7.8840   26.7530 C.2   134  ASN134      0.2292
    152  O         22.6230    7.5600   25.7540 O.2   134  ASN134     -0.2864
    153  CB        21.5330    8.9650   28.1820 C.3   134  ASN134      0.1181
    154  CG        20.4190    8.6300   29.1680 C.2   134  ASN134      0.2629
    155  OD1       19.6340    9.4960   29.5690 O.2   134  ASN134     -0.2716
    156  ND2       20.3360    7.3620   29.5460 N.am  134  ASN134     -0.0877
    157  N         25.9720    6.2390   24.3240 N.3   136  LEU136     -0.1245
    158  CA        26.7350    4.9990   24.2000 C.3   136  LEU136      0.1561
    159  C         27.7480    4.9330   23.0650 C.2   136  LEU136      0.2260
    160  O         27.6840    5.6970   22.0950 O.2   136  LEU136     -0.2867
    161  CB        25.7620    3.8290   24.0620 C.3   136  LEU136      0.0270
    162  CG        24.6700    3.7640   25.1250 C.3   136  LEU136      0.0019
    163  CD1       23.6090    2.7570   24.7170 C.3   136  LEU136      0.0001
    164  CD2       25.2950    3.3810   26.4580 C.3   136  LEU136      0.0001
    165  N         20.9480    7.1870   23.4040 N.3   146  SER146     -0.1202
    166  CA        19.9780    6.1980   23.8450 C.3   146  SER146      0.2020
    167  C         19.0200    6.7320   24.9130 C.2   146  SER146      0.2618
    168  O         19.2090    7.8220   25.4670 O.2   146  SER146     -0.2717
    169  CB        20.6900    4.9650   24.4210 C.3   146  SER146      0.2103
    170  OG        20.9930    5.1560   25.8010 O.3   146  SER146     -0.2182
    171  N         17.9970    5.9200   25.1800 N.am  147  ASP147     -0.1973
    172  CA        16.9440    6.1650   26.1560 C.3   147  ASP147      0.1709
    173  C         16.0540    7.3610   25.9130 C.2   147  ASP147      0.2293
    174  O         16.3660    8.4890   26.3280 O.2   147  ASP147     -0.2864
    175  CB        17.5250    6.2650   27.5670 C.3   147  ASP147      0.1436
    176  CG        16.4840    5.9960   28.6250 C.2   147  ASP147      0.3671
    177  OD1       15.2980    6.3270   28.3820 O.co2 147  ASP147     -0.2456
    178  OD2       16.8470    5.4570   29.6960 O.co2 147  ASP147     -0.2456
@<TRIPOS>BOND
     1    94    92   ar
     2    93    92   ar
     3    92    91    1
     4    91    90    1
     5    73    74    2
     6    73    72    1
     7    90    87    1
     8    71    72    1
     9    72    75    1
    10    87    86    1
    11    87    88    1
    12    98    97    2
    13    86    80   am
    14    95    88   am
    15    95    96    1
    16    75    76    1
    17    75    77    1
    18    88    89    2
    19   118   117    1
    20    80    79    1
    21    80    81    2
    22    97    96    1
    23    97   107   am
    24   112   111    1
    25    79    78    1
    26    79    82    1
    27    99    96    1
    28    99   100    1
    29    85    83    1
    30   102   100   ar
    31   102   104   ar
    32   108   107    1
    33   108   111    1
    34   108   109    1
    35   160   159    2
    36   117   114    1
    37   113   109   am
    38   113   114    1
    39   100   101   ar
    40    82    83    1
    41   104   105   ar
    42    65    64    2
    43   109   110    2
    44    83    84    1
    45    48    49    1
    46   114   115    1
    47   159   158    1
    48    64    63    1
    49   165   166    1
    50   115   116    2
    51    51    50    2
    52   101   103   ar
    53   166   169    1
    54   166   167    1
    55   105   103   ar
    56   105   106    1
    57   161   158    1
    58   161   162    1
    59   158   157    1
    60    49    50    1
    61    49    52    1
    62   169   170    1
    63    63    62    1
    64    63    66    1
    65   163   162    1
    66   167   171   am
    67   167   168    2
    68   162   164    1
    69   171   172    1
    70   119   120    1
    71    67    66    1
    72    67    68    1
    73   152   151    2
    74   122   121    2
    75   173   172    1
    76   173   174    2
    77   172   175    1
    78    68    69   ar
    79    68    70   ar
    80   120   121    1
    81   151   150    1
    82   121   123   am
    83    53    54    1
    84   175   176    1
    85    23    22    1
    86    57    54    1
    87    57    58    1
    88   123   124    1
    89   150   153    1
    90   150   149    1
    91   125   124    1
    92   125   126    2
    93   153   154    1
    94   124   127    1
    95    54    55    1
    96   177   176   ar
    97    56    55    2
    98    46    45    1
    99   176   178   ar
   100    59    60    1
   101    59    58    1
   102    61    60    1
   103    24    22    1
   104   154   156   am
   105   154   155    2
   106    22    21    1
   107   149   142   am
   108   127   128    1
   109    45    47    1
   110    45    42    1
   111   143   142    2
   112     8     7    2
   113   142   141    1
   114     7     6    1
   115     7     9   am
   116     6     5    1
   117    21    18    1
   118   128   129    1
   119     1     2    1
   120    43    42    1
   121    43    44    2
   122    42    41    1
   123     4     3    2
   124   140   141    1
   125   134   135    2
   126   134   133    1
   127   141   144    1
   128     5     2    1
   129   129   131   ar
   130   129   130   ar
   131   132   133    1
   132     2     3    1
   133   136   133    1
   134   136   137    1
   135    18    17    1
   136    18    19    1
   137     3    10   am
   138    17    12   am
   139    19    20    2
   140    19    25   am
   141   144   145    1
   142    13    12    2
   143    12    11    1
   144    38    36   ar
   145    38    39   ar
   146   138   137   ar
   147   137   139   ar
   148    10    11    1
   149    40    39    1
   150    25    26    1
   151    36    34   ar
   152    11    14    1
   153   147   146   ar
   154    39    37   ar
   155    28    27    2
   156   145   146    1
   157    26    27    1
   158   146   148   ar
   159    34    33    1
   160    34    35   ar
   161    37    35   ar
   162    14    15    1
   163    14    16    1
   164    33    30    1
   165    32    31    2
   166    31    30    1
   167    30    29    1
