@<TRIPOS>MOLECULE
tmp/2e9zC00.pdb
 143 135 0 0 0
SMALL
GASTEIGER

@<TRIPOS>ATOM
      1  N         13.0840   17.1290   10.7240 N.3    59  LYS59      -0.1245
      2  CA        14.2810   17.1940   11.5550 C.3    59  LYS59       0.1561
      3  C         14.5720   15.8380   12.1860 C.2    59  LYS59       0.2260
      4  O         15.6030   15.6530   12.8320 O.2    59  LYS59      -0.2867
      5  CB        14.1180   18.2500   12.6550 C.3    59  LYS59       0.0271
      6  CG        13.0760   17.9140   13.7130 C.3    59  LYS59       0.0035
      7  CD        13.0360   18.9810   14.7990 C.3    59  LYS59       0.0206
      8  CE        12.0520   18.6210   15.9030 C.3    59  LYS59       0.1093
      9  NZ        12.0130   19.6540   16.9780 N.3    59  LYS59      -0.1314
     10  N          6.9470   28.2190   16.8370 N.3   164  LYS164     -0.1245
     11  CA         7.6160   29.4230   17.3130 C.3   164  LYS164      0.1561
     12  C          7.5610   30.5780   16.3230 C.2   164  LYS164      0.2260
     13  O          8.1010   30.4990   15.2200 O.2   164  LYS164     -0.2867
     14  CB         9.0770   29.1270   17.6710 C.3   164  LYS164      0.0271
     15  CG         9.9250   30.3850   17.8320 C.3   164  LYS164      0.0035
     16  CD        11.1530   30.1500   18.6920 C.3   164  LYS164      0.0206
     17  CE        10.7660   29.9730   20.1510 C.3   164  LYS164      0.1093
     18  NZ        11.9530   29.8250   21.0370 N.3   164  LYS164     -0.1314
     19  N         13.2850   34.7970   11.4830 N.3   168  ARG168     -0.1245
     20  CA        14.3360   33.9850   10.8830 C.3   168  ARG168      0.1563
     21  C         14.7280   34.5080    9.5060 C.2   168  ARG168      0.2260
     22  O         14.0120   35.3120    8.9130 O.2   168  ARG168     -0.2867
     23  CB        13.8770   32.5300   10.7590 C.3   168  ARG168      0.0307
     24  CG        13.4520   31.8930   12.0690 C.3   168  ARG168      0.0489
     25  CD        13.5860   30.3830   11.9970 C.3   168  ARG168      0.2205
     26  NE        14.9800   29.9880   11.8110 N.pl3 168  ARG168     -0.0865
     27  CZ        15.3970   28.7320   11.7000 C.cat 168  ARG168      0.5346
     28  NH1       14.5280   27.7340   11.7550 N.pl3 168  ARG168      0.1354
     29  NH2       16.6870   28.4740   11.5350 N.pl3 168  ARG168      0.1354
     30  N         15.5110   30.7310    5.0570 N.3   172  LYS172     -0.1245
     31  CA        14.9860   29.6710    5.9110 C.3   172  LYS172      0.1561
     32  C         13.4660   29.7440    6.0000 C.2   172  LYS172      0.2260
     33  O         12.7820   28.7220    5.9430 O.2   172  LYS172     -0.2867
     34  CB        15.5950   29.7690    7.3130 C.3   172  LYS172      0.0271
     35  CG        17.1160   29.6070    7.3740 C.3   172  LYS172      0.0035
     36  CD        17.5800   28.1920    7.0200 C.3   172  LYS172      0.0206
     37  CE        17.5180   27.9180    5.5200 C.3   172  LYS172      0.1093
     38  NZ        17.9710   26.5430    5.1690 N.3   172  LYS172     -0.1314
     39  N         10.7660   26.7300   13.1880 N.3   179  ARG179     -0.1231
     40  CA        11.1210   25.9540   14.3700 C.3   179  ARG179      0.1694
     41  C          9.9050   25.7060   15.2500 C.2   179  ARG179      0.2592
     42  O          9.1170   26.6150   15.5100 O.2   179  ARG179     -0.2718
     43  CB        12.2040   26.6720   15.1770 C.3   179  ARG179      0.0321
     44  CG        13.4900   26.9140   14.4050 C.3   179  ARG179      0.0489
     45  CD        14.6380   27.2880   15.3310 C.3   179  ARG179      0.2205
     46  NE        14.3120   28.4270   16.1820 N.pl3 179  ARG179     -0.0865
     47  CZ        15.1390   28.9480   17.0820 C.cat 179  ARG179      0.5346
     48  NH1       16.3490   28.4330   17.2520 N.pl3 179  ARG179      0.1354
     49  NH2       14.7530   29.9810   17.8170 N.pl3 179  ARG179      0.1354
     50  N          9.7590   24.4670   15.7070 N.am  180  ILE180     -0.1966
     51  CA         8.6360   24.0900   16.5530 C.3   180  ILE180      0.1727
     52  C          9.0400   23.8550   18.0030 C.2   180  ILE180      0.2616
     53  O         10.1470   23.3950   18.2910 O.2   180  ILE180     -0.2715
     54  CB         7.9300   22.8170   16.0260 C.3   180  ILE180      0.0290
     55  CG1        8.9190   21.6490   15.9350 C.3   180  ILE180      0.0022
     56  CG2        7.3010   23.1040   14.6790 C.3   180  ILE180      0.0023
     57  CD1        9.9870   21.7970   14.8640 C.3   180  ILE180      0.0001
     58  N          8.1230   24.1740   18.9110 N.am  181  VAL181     -0.1977
     59  CA         8.3500   24.0140   20.3410 C.3   181  VAL181      0.1596
     60  C          7.5910   22.8090   20.8810 C.2   181  VAL181      0.2287
     61  O          6.4560   22.5500   20.4830 O.2   181  VAL181     -0.2864
     62  CB         7.8900   25.2640   21.1150 C.3   181  VAL181      0.0276
     63  CG1        8.0550   25.0410   22.6040 C.3   181  VAL181      0.0022
     64  CG2        8.6860   26.4770   20.6640 C.3   181  VAL181      0.0022
     65  N         26.4950   22.3880   15.1810 N.3   241  TYR241     -0.1227
     66  CA        25.6950   21.1740   15.1170 C.3   241  TYR241      0.1736
     67  C         24.4810   21.3900   14.2220 C.2   241  TYR241      0.2596
     68  O         24.0370   22.5210   14.0250 O.2   241  TYR241     -0.2718
     69  CB        25.2280   20.7750   16.5180 C.3   241  TYR241      0.0548
     70  CG        26.3230   20.2480   17.4180 C.ar  241  TYR241     -0.0200
     71  CD1       26.8640   18.9790   17.2200 C.ar  241  TYR241     -0.0009
     72  CD2       26.8150   21.0170   18.4720 C.ar  241  TYR241     -0.0009
     73  CE1       27.8670   18.4870   18.0520 C.ar  241  TYR241      0.0417
     74  CE2       27.8180   20.5350   19.3080 C.ar  241  TYR241      0.0417
     75  CZ        28.3390   19.2700   19.0930 C.ar  241  TYR241      0.1957
     76  OH        29.3270   18.7890   19.9200 O.3   241  TYR241     -0.2866
     77  N         23.9540   20.2970   13.6800 N.am  242  SER242     -0.1938
     78  CA        22.7810   20.3490   12.8150 C.3   242  SER242      0.2055
     79  C         21.6370   19.6230   13.5090 C.2   242  SER242      0.2643
     80  O         21.6040   18.3940   13.5390 O.2   242  SER242     -0.2714
     81  CB        23.0800   19.6760   11.4730 C.3   242  SER242      0.2130
     82  OG        21.9230   19.6330   10.6550 O.3   242  SER242     -0.2179
     83  N         20.7030   20.3860   14.0670 N.am  243  ALA243     -0.1963
     84  CA        19.5690   19.8050   14.7720 C.3   243  ALA243      0.1728
     85  C         20.0830   19.0140   15.9720 C.2   243  ALA243      0.2616
     86  O         19.5790   17.9370   16.2870 O.2   243  ALA243     -0.2715
     87  CB        18.7790   18.8980   13.8380 C.3   243  ALA243      0.0334
     88  N         21.0950   19.5660   16.6310 N.am  244  PHE244     -0.1960
     89  CA        21.7170   18.9490   17.7990 C.3   244  PHE244      0.1771
     90  C         20.6970   18.3790   18.7780 C.2   244  PHE244      0.2620
     91  O         20.7080   17.1860   19.0770 O.2   244  PHE244     -0.2715
     92  CB        22.5830   19.9850   18.5210 C.3   244  PHE244      0.0574
     93  CG        23.3100   19.4490   19.7220 C.ar  244  PHE244     -0.0200
     94  CD1       24.3640   18.5580   19.5730 C.ar  244  PHE244     -0.0042
     95  CD2       22.9540   19.8550   21.0030 C.ar  244  PHE244     -0.0042
     96  CE1       25.0560   18.0820   20.6840 C.ar  244  PHE244     -0.0003
     97  CE2       23.6390   19.3860   22.1200 C.ar  244  PHE244     -0.0003
     98  CZ        24.6920   18.4990   21.9600 C.ar  244  PHE244     -0.0000
     99  N         19.8160   19.2410   19.2710 N.am  245  ASP245     -0.1957
    100  CA        18.8010   18.8400   20.2360 C.3   245  ASP245      0.1840
    101  C         17.7980   17.8340   19.6850 C.2   245  ASP245      0.2621
    102  O         16.9960   17.2800   20.4360 O.2   245  ASP245     -0.2715
    103  CB        18.0460   20.0710   20.7420 C.3   245  ASP245      0.1450
    104  CG        18.9690   21.1360   21.3110 C.2   245  ASP245      0.3671
    105  OD1       18.4620   22.1870   21.7520 O.co2 245  ASP245     -0.2456
    106  OD2       20.1990   20.9270   21.3180 O.co2 245  ASP245     -0.2456
    107  N         17.8410   17.5940   18.3780 N.am  246  ALA246     -0.1977
    108  CA        16.9070   16.6620   17.7540 C.3   246  ALA246      0.1597
    109  C         17.5790   15.4330   17.1540 C.2   246  ALA246      0.2287
    110  O         16.9490   14.6860   16.4070 O.2   246  ALA246     -0.2864
    111  CB        16.0970   17.3830   16.6810 C.3   246  ALA246      0.0319
    112  N         11.6800   20.1800   22.7880 N.3   298  SER298     -0.1217
    113  CA        11.9790   21.6040   22.7200 C.3   298  SER298      0.1889
    114  C         11.1600   22.3900   23.7380 C.2   298  SER298      0.2288
    115  O         10.5060   23.3710   23.3860 O.2   298  SER298     -0.2866
    116  CB        11.6870   22.1300   21.3120 C.3   298  SER298      0.2089
    117  OG        12.4050   21.3980   20.3340 O.3   298  SER298     -0.2183
    118  N         23.4980   23.8000   22.2330 N.3   338  ASP338     -0.1239
    119  CA        24.2050   23.2280   21.0960 C.3   338  ASP338      0.1674
    120  C         25.4180   24.0760   20.7360 C.2   338  ASP338      0.2266
    121  O         26.4720   23.5420   20.3910 O.2   338  ASP338     -0.2867
    122  CB        23.2800   23.1050   19.8790 C.3   338  ASP338      0.1410
    123  CG        22.7390   24.4400   19.4150 C.2   338  ASP338      0.3668
    124  OD1       21.9170   25.0300   20.1410 O.co2 338  ASP338     -0.2456
    125  OD2       23.1350   24.9000   18.3240 O.co2 338  ASP338     -0.2456
    126  N         32.2850   28.6130    7.2650 N.3   369  LYS369     -0.1245
    127  CA        32.1130   27.8720    6.0180 C.3   369  LYS369      0.1561
    128  C         33.0550   28.3350    4.9090 C.2   369  LYS369      0.2260
    129  O         33.3210   27.5910    3.9630 O.2   369  LYS369     -0.2867
    130  CB        30.6640   27.9990    5.5410 C.3   369  LYS369      0.0271
    131  CG        29.6350   27.5950    6.5840 C.3   369  LYS369      0.0035
    132  CD        28.2220   27.8860    6.1080 C.3   369  LYS369      0.0206
    133  CE        27.2030   27.5960    7.1980 C.3   369  LYS369      0.1093
    134  NZ        25.8190   27.9400    6.7710 N.3   369  LYS369     -0.1314
    135  N         25.4920   34.3350   19.4500 N.3   387  LYS387     -0.1245
    136  CA        25.2740   35.4570   18.5400 C.3   387  LYS387      0.1561
    137  C         26.1670   36.6290   18.9290 C.2   387  LYS387      0.2260
    138  O         25.9070   37.7710   18.5520 O.2   387  LYS387     -0.2867
    139  CB        23.8110   35.9080   18.5860 C.3   387  LYS387      0.0271
    140  CG        22.8070   34.9370   17.9890 C.3   387  LYS387      0.0035
    141  CD        22.9020   34.8930   16.4740 C.3   387  LYS387      0.0206
    142  CE        21.6570   34.2580   15.8620 C.3   387  LYS387      0.1093
    143  NZ        21.3990   32.8840   16.3770 N.3   387  LYS387     -0.1314
@<TRIPOS>BOND
     1   129   128    2
     2   128   127    1
     3    30    31    1
     4    38    37    1
     5    37    36    1
     6   130   127    1
     7   130   131    1
     8    31    32    1
     9    31    34    1
    10    33    32    2
    11   127   126    1
    12   132   131    1
    13   132   133    1
    14   134   133    1
    15    36    35    1
    16    34    35    1
    17    22    21    2
    18    21    20    1
    19    82    81    1
    20     1     2    1
    21    23    20    1
    22    23    24    1
    23    20    19    1
    24    81    78    1
    25    29    27    1
    26     2     3    1
    27     2     5    1
    28    27    28    1
    29    27    26    2
    30    26    25    1
    31    25    24    1
    32     3     4    2
    33     5     6    1
    34    78    79    1
    35    78    77    1
    36    39    40    1
    37    79    80    2
    38    79    83   am
    39    77    67   am
    40     6     7    1
    41    87    84    1
    42    68    67    2
    43    83    84    1
    44    67    66    1
    45    40    43    1
    46    40    41    1
    47    44    43    1
    48    44    45    1
    49    56    54    1
    50    84    85    1
    51     7     8    1
    52    57    55    1
    53    66    65    1
    54    66    69    1
    55    13    12    2
    56    41    42    2
    57    41    50   am
    58    45    46    1
    59    50    51    1
    60   142   143    1
    61   142   141    1
    62     8     9    1
    63    55    54    1
    64    85    86    2
    65    85    88   am
    66    54    51    1
    67    46    47    2
    68    12    11    1
    69   110   109    2
    70   141   140    1
    71    69    70    1
    72    51    52    1
    73    88    89    1
    74   111   108    1
    75    10    11    1
    76    47    48    1
    77    47    49    1
    78   109   108    1
    79    71    70   ar
    80    71    73   ar
    81    11    14    1
    82    70    72   ar
    83    14    15    1
    84   108   107    1
    85    89    92    1
    86    89    90    1
    87    15    16    1
    88   140   139    1
    89    52    53    2
    90    52    58   am
    91    73    75   ar
    92   125   123   ar
    93   107   101   am
    94    72    74   ar
    95    92    93    1
    96   136   139    1
    97   136   137    1
    98   136   135    1
    99   138   137    2
   100    16    17    1
   101    90    91    2
   102    90    99   am
   103    58    59    1
   104    75    74   ar
   105    75    76    1
   106    99   100    1
   107   123   122    1
   108   123   124   ar
   109    94    93   ar
   110    94    96   ar
   111   101   100    1
   112   101   102    2
   113    93    95   ar
   114   122   119    1
   115    17    18    1
   116   100   103    1
   117   117   116    1
   118    59    60    1
   119    59    62    1
   120   121   120    2
   121    61    60    2
   122    64    62    1
   123    96    98   ar
   124   120   119    1
   125   103   104    1
   126    95    97   ar
   127   119   118    1
   128    62    63    1
   129   104   106   ar
   130   104   105   ar
   131   116   113    1
   132    98    97   ar
   133   113   112    1
   134   113   114    1
   135   115   114    2
