@<TRIPOS>MOLECULE
tmp/2ea1A00.pdb
 174 170 0 0 0
SMALL
GASTEIGER

@<TRIPOS>ATOM
      1  N         15.6540   27.9110   18.9640 N.3    15  VAL15      -0.1245
      2  CA        15.7090   26.7530   18.0460 C.3    15  VAL15       0.1561
      3  C         14.3700   26.7360   17.3730 C.2    15  VAL15       0.2260
      4  O         13.3530   26.6310   18.0800 O.2    15  VAL15      -0.2867
      5  CB        15.9500   25.4390   18.7990 C.3    15  VAL15       0.0252
      6  CG1       15.7620   24.2520   17.8410 C.3    15  VAL15       0.0019
      7  CG2       17.4110   25.3950   19.3550 C.3    15  VAL15       0.0019
      8  N          6.6880   23.2400   14.4040 N.3    55  HIS55      -0.1241
      9  CA         6.5940   22.5090   15.6610 C.3    55  HIS55       0.1621
     10  C          6.7150   23.4940   16.8200 C.2    55  HIS55       0.2264
     11  O          5.8730   23.5250   17.7210 O.2    55  HIS55      -0.2867
     12  CB         7.6740   21.4170   15.7010 C.3    55  HIS55       0.0745
     13  CG         7.6660   20.5890   16.9520 C.ar   55  HIS55       0.0817
     14  ND1        8.6300   19.6450   17.2150 N.ar   55  HIS55      -0.2268
     15  CD2        6.8260   20.5730   18.0150 C.ar   55  HIS55       0.1154
     16  CE1        8.3720   19.0560   18.3720 C.ar   55  HIS55       0.1986
     17  NE2        7.3070   19.6310   18.8990 N.ar   55  HIS55      -0.2212
     18  N         11.9330   27.5520   20.2850 N.3    58  TRP58      -0.1228
     19  CA        12.3620   27.2580   21.6330 C.3    58  TRP58       0.1722
     20  C         13.5260   28.1060   22.0620 C.2    58  TRP58       0.2437
     21  O         14.6460   27.8980   21.5580 O.2    58  TRP58      -0.2733
     22  CB        12.7840   25.7700   21.7000 C.3    58  TRP58       0.0563
     23  CG        11.6990   24.8520   21.2330 C.ar   58  TRP58       0.0003
     24  CD1       10.3670   25.0640   21.3100 C.ar   58  TRP58       0.0946
     25  CD2       11.8760   23.5320   20.6840 C.ar   58  TRP58       0.0152
     26  NE1        9.6780   23.9520   20.8270 N.ar   58  TRP58      -0.2442
     27  CE2       10.5960   23.0020   20.4390 C.ar   58  TRP58       0.0810
     28  CE3       12.9920   22.7590   20.3660 C.ar   58  TRP58       0.0012
     29  CZ2       10.4060   21.7050   19.9030 C.ar   58  TRP58       0.0191
     30  CZ3       12.8060   21.4730   19.8210 C.ar   58  TRP58       0.0001
     31  CH2       11.5260   20.9590   19.6080 C.ar   58  TRP58       0.0015
     32  N         13.3140   29.0420   23.0160 N.am   59  PRO59      -0.2729
     33  CA        14.4550   29.8210   23.4950 C.3    59  PRO59       0.1401
     34  C         15.4880   28.9390   24.1740 C.2    59  PRO59       0.2269
     35  O         15.1580   27.9390   24.8170 O.2    59  PRO59      -0.2865
     36  CB        13.8310   30.8150   24.4960 C.3    59  PRO59       0.0296
     37  CG        12.3690   30.9420   24.0160 C.3    59  PRO59       0.0237
     38  CD        12.0510   29.5040   23.6330 C.3    59  PRO59       0.0939
     39  N         20.1910   20.0000   30.0430 N.3    73  ARG73      -0.1245
     40  CA        19.2710   18.8860   30.0870 C.3    73  ARG73       0.1563
     41  C         17.9790   19.2940   30.7280 C.2    73  ARG73       0.2260
     42  O         16.9120   19.0290   30.1850 O.2    73  ARG73      -0.2867
     43  CB        19.8520   17.6780   30.8460 C.3    73  ARG73       0.0307
     44  CG        18.7620   16.6460   31.2090 C.3    73  ARG73       0.0489
     45  CD        19.2890   15.4260   32.0050 C.3    73  ARG73       0.2205
     46  NE        18.5600   14.2550   31.5430 N.pl3  73  ARG73      -0.0865
     47  CZ        19.0650   13.3010   30.7610 C.cat  73  ARG73       0.5346
     48  NH1       20.3410   13.3020   30.3890 N.pl3  73  ARG73       0.1354
     49  NH2       18.2780   12.3180   30.3710 N.pl3  73  ARG73       0.1354
     50  N         16.7930   22.3170   31.2760 N.3    75  TRP75      -0.1227
     51  CA        16.1040   23.3760   30.5010 C.3    75  TRP75       0.1737
     52  C         15.3370   22.7470   29.3140 C.2    75  TRP75       0.2595
     53  O         14.1660   23.0660   29.0540 O.2    75  TRP75      -0.2718
     54  CB        17.1110   24.4620   30.0390 C.3    75  TRP75       0.0564
     55  CG        16.4470   25.4510   29.1990 C.ar   75  TRP75       0.0003
     56  CD1       16.5450   25.5740   27.8430 C.ar   75  TRP75       0.0946
     57  CD2       15.4630   26.3880   29.6240 C.ar   75  TRP75       0.0152
     58  NE1       15.7330   26.5920   27.4060 N.ar   75  TRP75      -0.2442
     59  CE2       15.0560   27.1100   28.4820 C.ar   75  TRP75       0.0810
     60  CE3       14.9390   26.7460   30.8780 C.ar   75  TRP75       0.0012
     61  CZ2       14.0950   28.1310   28.5400 C.ar   75  TRP75       0.0191
     62  CZ3       13.9980   27.7690   30.9470 C.ar   75  TRP75       0.0001
     63  CH2       13.5680   28.4370   29.7910 C.ar   75  TRP75       0.0015
     64  N         15.9990   21.8160   28.6330 N.am   76  MET76      -0.1965
     65  CA        15.3920   21.1190   27.5030 C.3    76  MET76       0.1736
     66  C         14.1950   20.2980   27.9520 C.2    76  MET76       0.2616
     67  O         13.1700   20.3100   27.3130 O.2    76  MET76      -0.2715
     68  CB        16.4170   20.2600   26.8180 C.3    76  MET76       0.0427
     69  CG        17.5390   21.0850   26.2250 C.3    76  MET76       0.0599
     70  SD        18.7050   20.1240   25.2540 S.3    76  MET76      -0.1393
     71  CE        17.6420   18.7890   24.6800 C.3    76  MET76       0.0692
     72  N         14.3130   19.6600   29.1150 N.am   77  ARG77      -0.1977
     73  CA        13.2420   18.8150   29.6210 C.3    77  ARG77       0.1597
     74  C         12.0360   19.6180   30.0830 C.2    77  ARG77       0.2287
     75  O         10.9100   19.2270   29.8130 O.2    77  ARG77      -0.2864
     76  CB        13.7800   17.8860   30.7240 C.3    77  ARG77       0.0334
     77  CG        12.6920   17.1860   31.5100 C.3    77  ARG77       0.0492
     78  CD        13.0740   15.7690   31.8930 C.3    77  ARG77       0.2205
     79  NE        11.9150   15.0740   32.4530 N.pl3  77  ARG77      -0.0865
     80  CZ        11.9770   14.1590   33.4110 C.cat  77  ARG77       0.5346
     81  NH1       13.1480   13.8290   33.9440 N.pl3  77  ARG77       0.1354
     82  NH2       10.8610   13.5960   33.8570 N.pl3  77  ARG77       0.1354
     83  N          2.3060   16.8800   27.8530 N.3    93  ALA93      -0.1245
     84  CA         2.2880   16.5100   26.4350 C.3    93  ALA93       0.1562
     85  C          1.0320   15.7020   26.0930 C.2    93  ALA93       0.2260
     86  O          0.4550   15.8610   25.0160 O.2    93  ALA93      -0.2867
     87  CB         3.5540   15.7610   26.0470 C.3    93  ALA93       0.0290
     88  N          0.4310   23.9630   24.6230 N.3   128  TYR128     -0.1227
     89  CA         1.5620   23.2490   25.1830 C.3   128  TYR128      0.1736
     90  C          2.8850   23.9950   24.8460 C.2   128  TYR128      0.2595
     91  O          3.7230   24.2130   25.7270 O.2   128  TYR128     -0.2718
     92  CB         1.5970   21.8270   24.6070 C.3   128  TYR128      0.0548
     93  CG         2.8160   21.0390   25.0440 C.ar  128  TYR128     -0.0200
     94  CD1        3.9720   21.0220   24.2450 C.ar  128  TYR128     -0.0009
     95  CD2        2.8460   20.3520   26.2620 C.ar  128  TYR128     -0.0009
     96  CE1        5.1050   20.3400   24.6480 C.ar  128  TYR128      0.0417
     97  CE2        4.0080   19.6510   26.6670 C.ar  128  TYR128      0.0417
     98  CZ         5.1120   19.6510   25.8470 C.ar  128  TYR128      0.1957
     99  OH         6.2600   18.9990   26.2090 O.3   128  TYR128     -0.2866
    100  N          3.0490   24.3810   23.5720 N.am  129  GLU129     -0.1979
    101  CA         4.2960   25.0180   23.1180 C.3   129  GLU129      0.1602
    102  C          4.4930   26.3420   23.8020 C.2   129  GLU129      0.2287
    103  O          5.5880   26.6540   24.2290 O.2   129  GLU129     -0.2864
    104  CB         4.3510   25.1900   21.5830 C.3   129  GLU129      0.0415
    105  CG         4.5900   23.8720   20.8760 C.3   129  GLU129      0.1163
    106  CD         5.9920   23.3210   21.1520 C.2   129  GLU129      0.3649
    107  OE1        6.9370   24.1340   21.1970 O.co2 129  GLU129     -0.2457
    108  OE2        6.1390   22.0830   21.3370 O.co2 129  GLU129     -0.2457
    109  N          5.4520   25.8280   27.6240 N.3   132  LYS132     -0.1231
    110  CA         6.7580   25.2540   27.9070 C.3   132  LYS132      0.1693
    111  C          7.8460   26.2380   27.4820 C.2   132  LYS132      0.2592
    112  O          8.8920   26.3230   28.1150 O.2   132  LYS132     -0.2718
    113  CB         6.9020   23.9300   27.1750 C.3   132  LYS132      0.0285
    114  CG         8.1820   23.1790   27.5270 C.3   132  LYS132      0.0035
    115  CD         8.2670   21.8630   26.8160 C.3   132  LYS132      0.0206
    116  CE         9.6780   21.3660   26.8470 C.3   132  LYS132      0.1093
    117  NZ         9.8500   20.0690   27.5030 N.3   132  LYS132     -0.1314
    118  N          7.5750   27.0030   26.4230 N.am  133  HIS133     -0.1976
    119  CA         8.6320   27.7880   25.7430 C.3   133  HIS133      0.1656
    120  C          8.3610   29.2760   25.6610 C.2   133  HIS133      0.2291
    121  O          9.2720   30.0480   25.3010 O.2   133  HIS133     -0.2864
    122  CB         8.8410   27.2530   24.3140 C.3   133  HIS133      0.0771
    123  CG         9.2990   25.8310   24.2590 C.ar  133  HIS133      0.0820
    124  ND1       10.5890   25.4610   24.5770 N.ar  133  HIS133     -0.2267
    125  CD2        8.6500   24.6910   23.9130 C.ar  133  HIS133      0.1154
    126  CE1       10.7150   24.1520   24.4240 C.ar  133  HIS133      0.1986
    127  NE2        9.5590   23.6680   24.0050 N.ar  133  HIS133     -0.2212
    128  N         20.0740   20.6130   12.8210 N.3   194  LYS194     -0.1245
    129  CA        20.0430   19.2090   13.3220 C.3   194  LYS194      0.1561
    130  C         18.8500   18.5420   12.6950 C.2   194  LYS194      0.2260
    131  O         17.7390   19.0850   12.7940 O.2   194  LYS194     -0.2867
    132  CB        19.8920   19.2030   14.8700 C.3   194  LYS194      0.0271
    133  CG        19.7790   17.7990   15.4590 C.3   194  LYS194      0.0035
    134  CD        19.8130   17.8680   16.9870 C.3   194  LYS194      0.0206
    135  CE        18.4910   18.2720   17.5360 C.3   194  LYS194      0.1093
    136  NZ        17.4700   17.1850   17.5120 N.3   194  LYS194     -0.1314
    137  N         16.3550   15.1100   12.4630 N.3   196  THR196     -0.1218
    138  CA        15.9910   13.9190   13.1800 C.3   196  THR196      0.1862
    139  C         15.3250   12.9730   12.1940 C.2   196  THR196      0.2287
    140  O         14.5710   13.4030   11.3220 O.2   196  THR196     -0.2866
    141  CB        14.9780   14.2320   14.3100 C.3   196  THR196      0.1770
    142  OG1       15.5350   15.2220   15.2060 O.3   196  THR196     -0.2211
    143  CG2       14.6020   12.9310   15.1200 C.3   196  THR196      0.0375
    144  N         15.6260   21.0340   13.0110 N.3   208  GLN208     -0.1245
    145  CA        15.7640   22.0720   14.0620 C.3   208  GLN208      0.1566
    146  C         16.8930   23.0210   13.6970 C.2   208  GLN208      0.2260
    147  O         17.9890   22.5840   13.3850 O.2   208  GLN208     -0.2867
    148  CB        16.0470   21.4090   15.4140 C.3   208  GLN208      0.0367
    149  CG        14.8410   20.6430   15.9870 C.3   208  GLN208      0.0905
    150  CD        15.1970   19.8920   17.2310 C.2   208  GLN208      0.2608
    151  OE1       16.1900   20.2180   17.8840 O.2   208  GLN208     -0.2717
    152  NE2       14.3790   18.9100   17.6010 N.am  208  GLN208     -0.0878
    153  N         25.3220   19.2240   17.1180 N.3   230  HIS230     -0.1241
    154  CA        24.5630   17.9880   16.8270 C.3   230  HIS230      0.1621
    155  C         23.9650   17.9770   15.4090 C.2   230  HIS230      0.2264
    156  O         22.9710   18.6260   15.1840 O.2   230  HIS230     -0.2867
    157  CB        23.4070   17.9020   17.8210 C.3   230  HIS230      0.0745
    158  CG        23.8480   17.9620   19.2530 C.ar  230  HIS230      0.0817
    159  ND1       23.5320   19.0140   20.0930 N.ar  230  HIS230     -0.2268
    160  CD2       24.6020   17.1060   19.9860 C.ar  230  HIS230      0.1154
    161  CE1       24.0510   18.7890   21.2870 C.ar  230  HIS230      0.1986
    162  NE2       24.7020   17.6380   21.2500 N.ar  230  HIS230     -0.2212
    163  N         22.5390   15.4280   14.1410 N.3   232  GLY232     -0.1210
    164  CA        21.2930   14.6490   14.3390 C.3   232  GLY232      0.1956
    165  C         21.5060   13.1580   14.1690 C.2   232  GLY232      0.2611
    166  O         22.6400   12.7070   14.2090 O.2   232  GLY232     -0.2717
    167  N         20.4280   12.4070   13.9570 N.am  233  ASN233     -0.1974
    168  CA        20.5330   10.9130   13.9300 C.3   233  ASN233      0.1688
    169  C         20.1230   10.3110   12.6210 C.2   233  ASN233      0.2292
    170  O         19.7160    9.1420   12.5660 O.2   233  ASN233     -0.2864
    171  CB        19.6680   10.2900   15.0210 C.3   233  ASN233      0.1181
    172  CG        18.1860   10.4340   14.7270 C.2   233  ASN233      0.2629
    173  OD1       17.7750   11.2850   13.9270 O.2   233  ASN233     -0.2716
    174  ND2       17.3930    9.5880   15.3310 N.am  233  ASN233     -0.0877
@<TRIPOS>BOND
     1   140   139    2
     2   139   138    1
     3   137   138    1
     4   170   169    2
     5   169   168    1
     6   130   131    2
     7   130   129    1
     8   128   129    1
     9   144   145    1
    10   138   141    1
    11   129   132    1
    12   147   146    2
    13   146   145    1
    14   173   172    2
    15   168   167    1
    16   168   171    1
    17   167   165   am
    18   145   148    1
    19   163   164    1
    20   165   166    2
    21   165   164    1
    22   141   143    1
    23   141   142    1
    24     8     9    1
    25   172   171    1
    26   172   174   am
    27   132   133    1
    28   156   155    2
    29   155   154    1
    30   148   149    1
    31   133   134    1
    32     9    12    1
    33     9    10    1
    34    12    13    1
    35   149   150    1
    36    10    11    2
    37   154   153    1
    38   154   157    1
    39    13    14   ar
    40    13    15   ar
    41   134   135    1
    42    14    16   ar
    43   150   152   am
    44   150   151    2
    45     3     2    1
    46     3     4    2
    47   136   135    1
    48   157   158    1
    49     6     5    1
    50    15    17   ar
    51     2     5    1
    52     2     1    1
    53    16    17   ar
    54     5     7    1
    55   158   160   ar
    56   158   159   ar
    57    31    30   ar
    58    31    29   ar
    59    30    28   ar
    60    29    27   ar
    61   160   162   ar
    62   159   161   ar
    63    18    19    1
    64    28    25   ar
    65    27    25   ar
    66    27    26   ar
    67    25    23   ar
    68    26    24   ar
    69   105   106    1
    70   105   104    1
    71   106   107   ar
    72   106   108   ar
    73    23    24   ar
    74    23    22    1
    75   162   161   ar
    76    21    20    2
    77   104   101    1
    78    19    22    1
    79    19    20    1
    80    20    32   am
    81    32    33    1
    82    32    38    1
    83   101   100    1
    84   101   102    1
    85    33    34    1
    86    33    36    1
    87   100    90   am
    88    38    37    1
    89   102   103    2
    90   125   127   ar
    91   125   123   ar
    92   127   126   ar
    93    37    36    1
    94    34    35    2
    95    94    96   ar
    96    94    93   ar
    97   123   122    1
    98   123   124   ar
    99   122   119    1
   100   126   124   ar
   101    92    93    1
   102    92    89    1
   103    88    89    1
   104    96    98   ar
   105    71    70    1
   106    90    89    1
   107    90    91    2
   108    86    85    2
   109    93    95   ar
   110    70    69    1
   111   121   120    2
   112   120   119    1
   113   119   118    1
   114    98    99    1
   115    98    97   ar
   116    87    84    1
   117    85    84    1
   118    69    68    1
   119    95    97   ar
   120   118   111   am
   121    84    83    1
   122   115   116    1
   123   115   114    1
   124    68    65    1
   125   116   117    1
   126   113   114    1
   127   113   110    1
   128    67    66    2
   129    58    56   ar
   130    58    59   ar
   131   111   110    1
   132   111   112    2
   133    65    66    1
   134    65    64    1
   135   109   110    1
   136    56    55   ar
   137    66    72   am
   138    59    61   ar
   139    59    57   ar
   140    61    63   ar
   141    64    52   am
   142    53    52    2
   143    72    73    1
   144    55    57   ar
   145    55    54    1
   146    52    51    1
   147    73    74    1
   148    73    76    1
   149    57    60   ar
   150    63    62   ar
   151    75    74    2
   152    54    51    1
   153    39    40    1
   154    40    41    1
   155    40    43    1
   156    42    41    2
   157    49    47    1
   158    48    47    1
   159    51    50    1
   160    76    77    1
   161    47    46    2
   162    43    44    1
   163    60    62   ar
   164    44    45    1
   165    77    78    1
   166    46    45    1
   167    78    79    1
   168    79    80    2
   169    80    82    1
   170    80    81    1
