@<TRIPOS>MOLECULE
tmp/2ea2A00.pdb
 158 150 0 0 0
SMALL
GASTEIGER

@<TRIPOS>ATOM
      1  N         23.4330   31.0300    9.7070 N.3   110  PHE110     -0.1241
      2  CA        23.4920   31.8540   10.9010 C.3   110  PHE110      0.1605
      3  C         24.9220   31.8520   11.4090 C.2   110  PHE110      0.2264
      4  O         25.7320   31.0360   10.9770 O.2   110  PHE110     -0.2867
      5  CB        22.5390   31.3240   11.9770 C.3   110  PHE110      0.0534
      6  CG        22.5900   29.8370   12.1640 C.ar  110  PHE110     -0.0203
      7  CD1       21.6000   29.0250   11.6330 C.ar  110  PHE110     -0.0042
      8  CD2       23.6020   29.2520   12.8980 C.ar  110  PHE110     -0.0042
      9  CE1       21.6230   27.6580   11.8400 C.ar  110  PHE110     -0.0003
     10  CE2       23.6260   27.8870   13.1050 C.ar  110  PHE110     -0.0003
     11  CZ        22.6400   27.0900   12.5810 C.ar  110  PHE110     -0.0000
     12  N         23.7410   28.8510   24.3300 N.3   121  ALA121     -0.1231
     13  CA        23.6230   29.1820   22.9260 C.3   121  ALA121      0.1694
     14  C         23.7000   30.6580   22.5730 C.2   121  ALA121      0.2592
     15  O         23.6450   31.5360   23.4360 O.2   121  ALA121     -0.2718
     16  CB        22.3170   28.6040   22.3850 C.3   121  ALA121      0.0304
     17  N         23.8470   30.9050   21.2770 N.am  122  HIS122     -0.1976
     18  CA        23.8760   32.2500   20.7330 C.3   122  HIS122      0.1656
     19  C         25.0180   33.1700   21.1110 C.2   122  HIS122      0.2291
     20  O         24.8630   34.3880   21.1230 O.2   122  HIS122     -0.2864
     21  CB        22.5430   32.9290   21.0100 C.3   122  HIS122      0.0771
     22  CG        21.3970   32.2800   20.2990 C.ar  122  HIS122      0.0820
     23  ND1       20.1010   32.7430   20.3890 N.ar  122  HIS122     -0.2267
     24  CD2       21.3640   31.2290   19.4470 C.ar  122  HIS122      0.1154
     25  CE1       19.3230   32.0080   19.6160 C.ar  122  HIS122      0.1986
     26  NE2       20.0640   31.0820   19.0330 N.ar  122  HIS122     -0.2212
     27  N         27.8510   25.4920   17.1620 N.3   142  ASP142     -0.1239
     28  CA        26.5660   25.4620   16.4930 C.3   142  ASP142      0.1674
     29  C         26.5460   26.4130   15.3050 C.2   142  ASP142      0.2266
     30  O         26.3690   27.6210   15.4680 O.2   142  ASP142     -0.2867
     31  CB        25.4870   25.8440   17.4960 C.3   142  ASP142      0.1410
     32  CG        24.0990   25.6710   16.9500 C.2   142  ASP142      0.3668
     33  OD1       23.9560   25.2600   15.7780 O.co2 142  ASP142     -0.2456
     34  OD2       23.1440   25.9460   17.7000 O.co2 142  ASP142     -0.2456
     35  N         20.4950   23.2840   10.3650 N.3   153  ASP153     -0.1239
     36  CA        20.8180   23.7070   11.7240 C.3   153  ASP153      0.1674
     37  C         21.2960   22.4440   12.4440 C.2   153  ASP153      0.2266
     38  O         20.5020   21.5480   12.7440 O.2   153  ASP153     -0.2867
     39  CB        19.5670   24.2720   12.3960 C.3   153  ASP153      0.1410
     40  CG        19.8630   24.9360   13.7250 C.2   153  ASP153      0.3668
     41  OD1       18.9070   25.3870   14.3870 O.co2 153  ASP153     -0.2456
     42  OD2       21.0440   25.0140   14.1110 O.co2 153  ASP153     -0.2456
     43  N         14.4970   26.3910   26.6530 N.3   219  LEU219     -0.1231
     44  CA        15.2020   26.2540   25.3850 C.3   219  LEU219      0.1693
     45  C         14.4890   25.1260   24.6750 C.2   219  LEU219      0.2592
     46  O         13.6900   24.4260   25.2910 O.2   219  LEU219     -0.2718
     47  CB        16.6800   25.9140   25.5870 C.3   219  LEU219      0.0284
     48  CG        17.5800   27.1130   25.8910 C.3   219  LEU219      0.0019
     49  CD1       19.0460   26.6770   25.8870 C.3   219  LEU219      0.0001
     50  CD2       17.3390   28.2060   24.8580 C.3   219  LEU219      0.0001
     51  N         14.7630   24.9330   23.3910 N.am  220  ASN220     -0.1974
     52  CA        14.0620   23.8890   22.6680 C.3   220  ASN220      0.1688
     53  C         14.3930   23.8100   21.1910 C.2   220  ASN220      0.2292
     54  O         15.1430   24.6240   20.6600 O.2   220  ASN220     -0.2864
     55  CB        12.5770   24.1370   22.7930 C.3   220  ASN220      0.1181
     56  CG        12.2240   25.5700   22.5140 C.2   220  ASN220      0.2629
     57  OD1       12.6940   26.1540   21.5370 O.2   220  ASN220     -0.2716
     58  ND2       11.3950   26.1580   23.3760 N.am  220  ASN220     -0.0877
     59  N         12.7920   23.3000   17.1110 N.3   222  HIS222     -0.1241
     60  CA        11.8600   24.1290   16.3660 C.3   222  HIS222      0.1621
     61  C         11.7450   23.7120   14.9060 C.2   222  HIS222      0.2264
     62  O         12.6240   23.0420   14.3680 O.2   222  HIS222     -0.2867
     63  CB        12.3470   25.5690   16.4300 C.3   222  HIS222      0.0745
     64  CG        13.7560   25.7330   15.9500 C.ar  222  HIS222      0.0817
     65  ND1       14.0710   25.9940   14.6330 N.ar  222  HIS222     -0.2268
     66  CD2       14.9360   25.5990   16.6000 C.ar  222  HIS222      0.1154
     67  CE1       15.3830   26.0140   14.4930 C.ar  222  HIS222      0.1986
     68  NE2       15.9310   25.7770   15.6720 N.ar  222  HIS222     -0.2212
     69  N         14.9400   30.5620   10.0880 N.3   229  ILE229     -0.1231
     70  CA        15.4510   29.6190   11.0790 C.3   229  ILE229      0.1692
     71  C         14.3870   29.0040   11.9960 C.2   229  ILE229      0.2592
     72  O         14.4700   27.8250   12.3410 O.2   229  ILE229     -0.2718
     73  CB        16.5420   30.2760   11.9380 C.3   229  ILE229      0.0266
     74  CG1       17.0700   29.2660   12.9530 C.3   229  ILE229      0.0019
     75  CG2       15.9940   31.5230   12.6220 C.3   229  ILE229      0.0020
     76  CD1       17.6070   28.0050   12.3170 C.3   229  ILE229      0.0001
     77  N         13.3950   29.7950   12.3930 N.am  230  HIS230     -0.1976
     78  CA        12.3250   29.2950   13.2510 C.3   230  HIS230      0.1656
     79  C         10.9760   29.5590   12.5740 C.2   230  HIS230      0.2291
     80  O         10.4390   30.6700   12.6250 O.2   230  HIS230     -0.2864
     81  CB        12.3910   29.9650   14.6290 C.3   230  HIS230      0.0771
     82  CG        11.3670   29.4600   15.5990 C.ar  230  HIS230      0.0820
     83  ND1       11.4650   29.6700   16.9580 N.ar  230  HIS230     -0.2267
     84  CD2       10.2200   28.7650   15.4080 C.ar  230  HIS230      0.1154
     85  CE1       10.4230   29.1260   17.5620 C.ar  230  HIS230      0.1986
     86  NE2        9.6520   28.5700   16.6440 N.ar  230  HIS230     -0.2212
     87  N         16.9940   19.6530   18.8220 N.3   255  GLU255     -0.1245
     88  CA        18.1310   19.9420   19.6910 C.3   255  GLU255      0.1567
     89  C         17.7510   19.8830   21.1590 C.2   255  GLU255      0.2260
     90  O         16.6230   20.1930   21.5310 O.2   255  GLU255     -0.2867
     91  CB        18.7010   21.3270   19.3940 C.3   255  GLU255      0.0388
     92  CG        17.7010   22.4580   19.5470 C.3   255  GLU255      0.1160
     93  CD        18.2430   23.7920   19.0650 C.2   255  GLU255      0.3649
     94  OE1       17.4350   24.6150   18.5970 O.co2 255  GLU255     -0.2457
     95  OE2       19.4680   24.0280   19.1530 O.co2 255  GLU255     -0.2457
     96  N         19.4560   20.5460   25.2890 N.3   257  PHE257     -0.1241
     97  CA        20.5160   21.1480   26.0770 C.3   257  PHE257      0.1605
     98  C         20.4160   20.5530   27.4690 C.2   257  PHE257      0.2264
     99  O         19.3250   20.4630   28.0410 O.2   257  PHE257     -0.2867
    100  CB        20.3300   22.6680   26.1740 C.3   257  PHE257      0.0534
    101  CG        20.2480   23.3610   24.8500 C.ar  257  PHE257     -0.0203
    102  CD1       21.3420   24.0360   24.3370 C.ar  257  PHE257     -0.0042
    103  CD2       19.0740   23.3490   24.1200 C.ar  257  PHE257     -0.0042
    104  CE1       21.2680   24.6920   23.1170 C.ar  257  PHE257     -0.0003
    105  CE2       18.9940   24.0040   22.8960 C.ar  257  PHE257     -0.0003
    106  CZ        20.0950   24.6750   22.3990 C.ar  257  PHE257     -0.0000
    107  N         24.4110   38.4440   18.0010 N.3   273  HIS273     -0.1241
    108  CA        23.4460   37.9170   17.0470 C.3   273  HIS273      0.1621
    109  C         22.2610   38.8340   16.7890 C.2   273  HIS273      0.2264
    110  O         21.6580   39.3810   17.7170 O.2   273  HIS273     -0.2867
    111  CB        22.9380   36.5570   17.5150 C.3   273  HIS273      0.0745
    112  CG        24.0130   35.5250   17.6300 C.ar  273  HIS273      0.0817
    113  ND1       23.8020   34.1960   17.3410 N.ar  273  HIS273     -0.2268
    114  CD2       25.3080   35.6270   18.0060 C.ar  273  HIS273      0.1154
    115  CE1       24.9220   33.5240   17.5300 C.ar  273  HIS273      0.1986
    116  NE2       25.8520   34.3690   17.9340 N.ar  273  HIS273     -0.2212
    117  N         18.8490   39.4410   13.7780 N.3   275  MET275     -0.1245
    118  CA        18.1130   38.8900   12.6530 C.3   275  MET275      0.1570
    119  C         16.8890   39.7150   12.3250 C.2   275  MET275      0.2261
    120  O         16.1510   40.1320   13.2130 O.2   275  MET275     -0.2867
    121  CB        17.6950   37.4500   12.9360 C.3   275  MET275      0.0387
    122  CG        16.9950   36.7740   11.7690 C.3   275  MET275      0.0595
    123  SD        16.7850   35.0040   12.0350 S.3   275  MET275     -0.1393
    124  CE        15.4980   34.9730   13.2810 C.3   275  MET275      0.0692
    125  N         19.9310   35.0830   10.0920 N.3   305  ALA305     -0.1245
    126  CA        20.6420   35.6950   11.2000 C.3   305  ALA305      0.1562
    127  C         22.0670   36.0350   10.7980 C.2   305  ALA305      0.2260
    128  O         22.6540   35.3840    9.9370 O.2   305  ALA305     -0.2867
    129  CB        20.6510   34.7600   12.3880 C.3   305  ALA305      0.0290
    130  N         19.4510   38.9460   19.3950 N.3   335  TYR335     -0.1241
    131  CA        19.4580   37.5920   19.9280 C.3   335  TYR335      0.1605
    132  C         20.6860   37.3740   20.7990 C.2   335  TYR335      0.2264
    133  O         21.6620   36.7450   20.3970 O.2   335  TYR335     -0.2867
    134  CB        19.4130   36.5870   18.7840 C.3   335  TYR335      0.0534
    135  CG        18.0610   36.5290   18.1120 C.ar  335  TYR335     -0.0201
    136  CD1       17.0340   35.7550   18.6430 C.ar  335  TYR335     -0.0009
    137  CD2       17.8010   37.2600   16.9540 C.ar  335  TYR335     -0.0009
    138  CE1       15.7870   35.7060   18.0390 C.ar  335  TYR335      0.0417
    139  CE2       16.5590   37.2190   16.3440 C.ar  335  TYR335      0.0417
    140  CZ        15.5570   36.4390   16.8920 C.ar  335  TYR335      0.1957
    141  OH        14.3220   36.3810   16.2870 O.3   335  TYR335     -0.2866
    142  N         22.3660   33.0840   25.6380 N.3   338  LEU338     -0.1245
    143  CA        21.4990   32.5070   26.6480 C.3   338  LEU338      0.1561
    144  C         22.3730   31.6700   27.5820 C.2   338  LEU338      0.2260
    145  O         22.9240   30.6360   27.1820 O.2   338  LEU338     -0.2867
    146  CB        20.4430   31.6480   25.9600 C.3   338  LEU338      0.0270
    147  CG        19.7160   32.4450   24.8760 C.3   338  LEU338      0.0019
    148  CD1       18.7720   31.5520   24.1110 C.3   338  LEU338      0.0001
    149  CD2       18.9700   33.6020   25.5210 C.3   338  LEU338      0.0001
    150  N         22.3990   18.7670   18.2080 N.3   350  GLU350     -0.1245
    151  CA        21.2940   19.1340   17.3320 C.3   350  GLU350      0.1567
    152  C         21.4080   18.5920   15.9140 C.2   350  GLU350      0.2260
    153  O         22.4970   18.4870   15.3560 O.2   350  GLU350     -0.2867
    154  CB        21.1930   20.6590   17.2820 C.3   350  GLU350      0.0388
    155  CG        20.0050   21.2010   16.5270 C.3   350  GLU350      0.1160
    156  CD        19.9920   22.7180   16.5080 C.2   350  GLU350      0.3649
    157  OE1       18.9200   23.3100   16.2860 O.co2 350  GLU350     -0.2457
    158  OE2       21.0640   23.3170   16.7090 O.co2 350  GLU350     -0.2457
@<TRIPOS>BOND
     1     1     2    1
     2   128   127    2
     3    69    70    1
     4   125   126    1
     5    35    36    1
     6   127   126    1
     7     2     3    1
     8     2     5    1
     9     4     3    2
    10    70    73    1
    11    70    71    1
    12   126   129    1
    13     7     9   ar
    14     7     6   ar
    15    36    39    1
    16    36    37    1
    17   122   123    1
    18   122   121    1
    19     9    11   ar
    20    73    75    1
    21    73    74    1
    22     5     6    1
    23    71    72    2
    24    71    77   am
    25   123   124    1
    26     6     8   ar
    27    76    74    1
    28   119   118    1
    29   119   120    2
    30    77    78    1
    31    39    40    1
    32    37    38    2
    33    79    80    2
    34    79    78    1
    35    11    10   ar
    36   118   121    1
    37   118   117    1
    38     8    10   ar
    39    78    81    1
    40    40    42   ar
    41    40    41   ar
    42    62    61    2
    43    67    65   ar
    44    67    68   ar
    45    81    82    1
    46    65    64   ar
    47    61    60    1
    48    29    30    2
    49    29    28    1
    50   153   152    2
    51    84    82   ar
    52    84    86   ar
    53    82    83   ar
    54    68    66   ar
    55    33    32   ar
    56   152   151    1
    57    64    63    1
    58    64    66   ar
    59   157   156   ar
    60   141   140    1
    61   139   140   ar
    62   139   137   ar
    63    60    63    1
    64    60    59    1
    65    28    27    1
    66    28    31    1
    67   156   155    1
    68   156   158   ar
    69   155   154    1
    70    86    85   ar
    71   109   108    1
    72   109   110    2
    73   140   138   ar
    74    32    31    1
    75    32    34   ar
    76   137   135   ar
    77    83    85   ar
    78   108   111    1
    79   108   107    1
    80   154   151    1
    81   151   150    1
    82   113   115   ar
    83   113   112   ar
    84   111   112    1
    85   115   116   ar
    86   112   114   ar
    87   116   114   ar
    88   138   136   ar
    89   135   136   ar
    90   135   134    1
    91    94    93   ar
    92   134   131    1
    93    87    88    1
    94    26    24   ar
    95    26    25   ar
    96    93    95   ar
    97    93    92    1
    98    91    92    1
    99    91    88    1
   100   130   131    1
   101    24    22   ar
   102    25    23   ar
   103    88    89    1
   104   131   132    1
   105    22    23   ar
   106    22    21    1
   107   133   132    2
   108    54    53    2
   109    18    21    1
   110    18    19    1
   111    18    17    1
   112    19    20    2
   113    89    90    2
   114    53    52    1
   115    17    14   am
   116    57    56    2
   117    16    13    1
   118   106   105   ar
   119   106   104   ar
   120    56    55    1
   121    56    58   am
   122    14    13    1
   123    14    15    2
   124    52    55    1
   125    52    51    1
   126   105   103   ar
   127    13    12    1
   128   104   102   ar
   129    51    45   am
   130   148   147    1
   131   103   101   ar
   132   102   101   ar
   133    45    46    2
   134    45    44    1
   135   101   100    1
   136    50    48    1
   137   147   149    1
   138   147   146    1
   139    96    97    1
   140    44    47    1
   141    44    43    1
   142    47    48    1
   143   142   143    1
   144    49    48    1
   145   146   143    1
   146    97   100    1
   147    97    98    1
   148   143   144    1
   149   145   144    2
   150    98    99    2
