@<TRIPOS>MOLECULE
tmp/2eaaB00.pdb
 91 87 0 0 0
SMALL
GASTEIGER

@<TRIPOS>ATOM
      1  N         29.4910  -28.4040   83.1190 N.3    34  ARG34      -0.1245
      2  CA        28.2960  -29.1300   82.6970 C.3    34  ARG34       0.1563
      3  C         28.5040  -30.6420   82.6040 C.2    34  ARG34       0.2260
      4  O         29.5020  -31.1080   82.0580 O.2    34  ARG34      -0.2867
      5  CB        27.7990  -28.5750   81.3570 C.3    34  ARG34       0.0307
      6  CG        27.1560  -27.1840   81.4770 C.3    34  ARG34       0.0489
      7  CD        26.8280  -26.5940   80.1090 C.3    34  ARG34       0.2205
      8  NE        26.0040  -27.4980   79.3070 N.pl3  34  ARG34      -0.0865
      9  CZ        25.8730  -27.4080   77.9860 C.cat  34  ARG34       0.5346
     10  NH1       26.5080  -26.4510   77.3190 N.pl3  34  ARG34       0.1354
     11  NH2       25.1340  -28.2870   77.3320 N.pl3  34  ARG34       0.1354
     12  N         26.7170  -33.1020   80.8910 N.3    36  ASP36      -0.1225
     13  CA        26.6410  -33.6480   79.5410 C.3    36  ASP36       0.1805
     14  C         27.8770  -33.3790   78.6830 C.2    36  ASP36       0.2597
     15  O         28.2030  -34.1750   77.8060 O.2    36  ASP36      -0.2718
     16  CB        25.3810  -33.1300   78.8340 C.3    36  ASP36       0.1424
     17  CG        25.2430  -31.6280   78.9130 C.2    36  ASP36       0.3668
     18  OD1       25.2740  -31.0760   80.0390 O.co2  36  ASP36      -0.2456
     19  OD2       25.0970  -30.9940   77.8510 O.co2  36  ASP36      -0.2456
     20  N         28.5650  -32.2700   78.9380 N.am   37  GLN37      -0.1979
     21  CA        29.7670  -31.9260   78.1750 C.3    37  GLN37       0.1601
     22  C         30.9300  -32.8500   78.5390 C.2    37  GLN37       0.2287
     23  O         31.8800  -33.0080   77.7690 O.2    37  GLN37      -0.2864
     24  CB        30.1760  -30.4790   78.4500 C.3    37  GLN37       0.0394
     25  CG        29.0960  -29.4640   78.1600 C.3    37  GLN37       0.0908
     26  CD        28.8430  -29.2810   76.6800 C.2    37  GLN37       0.2608
     27  OE1       28.5190  -30.2350   75.9650 O.2    37  GLN37      -0.2717
     28  NE2       28.9850  -28.0440   76.2090 N.am   37  GLN37      -0.0878
     29  N         28.4670  -38.3800   77.7130 N.3    40  LYS40      -0.1245
     30  CA        27.1550  -38.6470   77.1580 C.3    40  LYS40       0.1561
     31  C         26.4800  -39.7400   77.9710 C.2    40  LYS40       0.2260
     32  O         25.2710  -39.9450   77.8640 O.2    40  LYS40      -0.2867
     33  CB        27.2820  -39.0750   75.6940 C.3    40  LYS40       0.0271
     34  CG        27.8950  -38.0020   74.8090 C.3    40  LYS40       0.0035
     35  CD        27.0920  -36.7150   74.9210 C.3    40  LYS40       0.0206
     36  CE        27.6850  -35.5880   74.0920 C.3    40  LYS40       0.1093
     37  NZ        26.9700  -34.3080   74.3760 N.3    40  LYS40      -0.1314
     38  N         24.0080  -37.9380   79.9820 N.3    43  GLN43      -0.1245
     39  CA        23.3130  -36.9240   79.1950 C.3    43  GLN43       0.1566
     40  C         22.0650  -36.3720   79.8840 C.2    43  GLN43       0.2260
     41  O         21.7980  -35.1770   79.8080 O.2    43  GLN43      -0.2867
     42  CB        22.9200  -37.5080   77.8320 C.3    43  GLN43       0.0367
     43  CG        22.2570  -36.5240   76.8600 C.3    43  GLN43       0.0905
     44  CD        23.2290  -35.4840   76.3250 C.2    43  GLN43       0.2608
     45  OE1       24.3730  -35.8040   75.9970 O.2    43  GLN43      -0.2717
     46  NE2       22.7750  -34.2380   76.2220 N.am   43  GLN43      -0.0878
     47  N         21.7980  -33.0360   81.9560 N.3    46  GLU46      -0.1245
     48  CA        22.0050  -31.7650   81.2610 C.3    46  GLU46       0.1567
     49  C         21.1460  -30.6070   81.7670 C.2    46  GLU46       0.2260
     50  O         21.5340  -29.4440   81.6410 O.2    46  GLU46      -0.2867
     51  CB        21.7780  -31.9390   79.7550 C.3    46  GLU46       0.0388
     52  CG        20.3280  -32.1750   79.3550 C.3    46  GLU46       0.1160
     53  CD        20.1730  -32.4170   77.8570 C.2    46  GLU46       0.3649
     54  OE1       20.5910  -31.5500   77.0600 O.co2  46  GLU46      -0.2457
     55  OE2       19.6310  -33.4740   77.4790 O.co2  46  GLU46      -0.2457
     56  N         16.8390  -21.4830   79.7380 N.3   130  ASN130     -0.1226
     57  CA        17.7020  -22.3170   78.9230 C.3   130  ASN130      0.1770
     58  C         17.9340  -23.5230   79.8180 C.2   130  ASN130      0.2439
     59  O         18.2070  -23.3730   81.0080 O.2   130  ASN130     -0.2733
     60  CB        19.0130  -21.5990   78.6110 C.3   130  ASN130      0.1168
     61  CG        19.8970  -22.3900   77.6640 C.2   130  ASN130      0.2627
     62  OD1       20.4470  -23.4220   78.0330 O.2   130  ASN130     -0.2716
     63  ND2       20.0270  -21.9110   76.4300 N.am  130  ASN130     -0.0877
     64  N         17.8210  -24.7350   79.2670 N.am  131  PRO131     -0.2718
     65  CA        18.0230  -25.9190   80.1010 C.3   131  PRO131      0.1535
     66  C         19.4200  -26.1400   80.6680 C.2   131  PRO131      0.2599
     67  O         19.5640  -26.8000   81.6890 O.2   131  PRO131     -0.2715
     68  CB        17.5830  -27.0590   79.1840 C.3   131  PRO131      0.0310
     69  CG        17.9910  -26.5670   77.8340 C.3   131  PRO131      0.0237
     70  CD        17.5560  -25.1110   77.8660 C.3   131  PRO131      0.0939
     71  N         20.4360  -25.5660   80.0340 N.am  132  HIS132     -0.1960
     72  CA        21.8180  -25.7790   80.4550 C.3   132  HIS132      0.1787
     73  C         22.4510  -24.7550   81.3830 C.2   132  HIS132      0.2620
     74  O         23.5300  -25.0030   81.9330 O.2   132  HIS132     -0.2715
     75  CB        22.6900  -25.9360   79.2090 C.3   132  HIS132      0.0785
     76  CG        22.2110  -27.0060   78.2790 C.ar  132  HIS132      0.0821
     77  ND1       22.3580  -26.9270   76.9110 N.ar  132  HIS132     -0.2267
     78  CD2       21.5870  -28.1840   78.5230 C.ar  132  HIS132      0.1154
     79  CE1       21.8460  -28.0100   76.3520 C.ar  132  HIS132      0.1986
     80  NE2       21.3710  -28.7880   77.3090 N.ar  132  HIS132     -0.2212
     81  N         21.8060  -23.6070   81.5610 N.am  133  ARG133     -0.1977
     82  CA        22.3600  -22.5880   82.4430 C.3   133  ARG133      0.1597
     83  C         21.3360  -21.5590   82.8770 C.2   133  ARG133      0.2287
     84  O         20.2570  -21.4530   82.2970 O.2   133  ARG133     -0.2864
     85  CB        23.5370  -21.8820   81.7600 C.3   133  ARG133      0.0334
     86  CG        23.2030  -21.3680   80.3800 C.3   133  ARG133      0.0492
     87  CD        24.4430  -20.9320   79.6220 C.3   133  ARG133      0.2205
     88  NE        24.1290  -20.7220   78.2120 N.pl3 133  ARG133     -0.0865
     89  CZ        23.9220  -21.6980   77.3330 C.cat 133  ARG133      0.5346
     90  NH1       24.0070  -22.9650   77.7090 N.pl3 133  ARG133      0.1354
     91  NH2       23.6140  -21.4030   76.0760 N.pl3 133  ARG133      0.1354
@<TRIPOS>BOND
     1    36    37    1
     2    36    35    1
     3    34    35    1
     4    34    33    1
     5    33    30    1
     6    27    26    2
     7    45    44    2
     8    91    89    1
     9    28    26   am
    10    46    44   am
    11    44    43    1
    12    79    77   ar
    13    79    80   ar
    14    63    61   am
    15    26    25    1
    16    43    42    1
    17    77    76   ar
    18    54    53   ar
    19    30    29    1
    20    30    31    1
    21    80    78   ar
    22    10     9    1
    23    11     9    1
    24    89    90    1
    25    89    88    2
    26    55    53   ar
    27    61    62    2
    28    61    60    1
    29    23    22    2
    30    15    14    2
    31    42    39    1
    32    69    70    1
    33    69    68    1
    34    19    17   ar
    35    53    52    1
    36    32    31    2
    37    70    64    1
    38     9     8    2
    39    25    24    1
    40    21    24    1
    41    21    22    1
    42    21    20    1
    43    88    87    1
    44    76    78   ar
    45    76    75    1
    46    60    57    1
    47    14    20   am
    48    14    13    1
    49    16    17    1
    50    16    13    1
    51    17    18   ar
    52    57    56    1
    53    57    58    1
    54    68    65    1
    55    39    40    1
    56    39    38    1
    57    75    72    1
    58    64    58   am
    59    64    65    1
    60     8     7    1
    61    52    51    1
    62    13    12    1
    63    87    86    1
    64    51    48    1
    65    41    40    2
    66    58    59    2
    67    71    72    1
    68    71    66   am
    69    65    66    1
    70     7     6    1
    71    86    85    1
    72    72    73    1
    73    66    67    2
    74    48    49    1
    75    48    47    1
    76     5     6    1
    77     5     2    1
    78    73    81   am
    79    73    74    2
    80    81    82    1
    81    50    49    2
    82    85    82    1
    83     4     3    2
    84    84    83    2
    85    82    83    1
    86     3     2    1
    87     2     1    1
