@<TRIPOS>MOLECULE
tmp/2eabA01.pdb
 102 95 0 0 0
SMALL
GASTEIGER

@<TRIPOS>ATOM
      1  N         36.2660   11.6570   45.9210 N.3   504  GLN504     -0.1245
      2  CA        35.5620   12.8650   46.3550 C.3   504  GLN504      0.1566
      3  C         34.1200   12.5540   46.7290 C.2   504  GLN504      0.2260
      4  O         33.6440   12.9800   47.7840 O.2   504  GLN504     -0.2867
      5  CB        35.5820   13.9540   45.2930 C.3   504  GLN504      0.0367
      6  CG        36.9300   14.6050   45.0880 C.3   504  GLN504      0.0905
      7  CD        36.8480   15.8690   44.2590 C.2   504  GLN504      0.2608
      8  OE1       35.9700   16.7000   44.4680 O.2   504  GLN504     -0.2717
      9  NE2       37.7850   16.0330   43.3310 N.am  504  GLN504     -0.0878
     10  N         34.1850   10.7150   50.0570 N.3   507  TYR507     -0.1227
     11  CA        34.4550   11.5770   51.2040 C.3   507  TYR507      0.1736
     12  C         33.2550   12.4600   51.5570 C.2   507  TYR507      0.2595
     13  O         33.0230   12.7630   52.7320 O.2   507  TYR507     -0.2718
     14  CB        35.7250   12.4210   51.0050 C.3   507  TYR507      0.0548
     15  CG        36.0340   13.2330   52.2400 C.ar  507  TYR507     -0.0200
     16  CD1       36.5130   12.6150   53.3890 C.ar  507  TYR507     -0.0009
     17  CD2       35.7950   14.6070   52.2840 C.ar  507  TYR507     -0.0009
     18  CE1       36.7630   13.3380   54.5500 C.ar  507  TYR507      0.0417
     19  CE2       36.0490   15.3420   53.4500 C.ar  507  TYR507      0.0417
     20  CZ        36.5280   14.6930   54.5750 C.ar  507  TYR507      0.1957
     21  OH        36.7790   15.3920   55.7400 O.3   507  TYR507     -0.2866
     22  N         32.4900   12.8690   50.5470 N.am  508  GLU508     -0.1979
     23  CA        31.2930   13.6690   50.7990 C.3   508  GLU508      0.1602
     24  C         30.2880   12.9710   51.7130 C.2   508  GLU508      0.2287
     25  O         29.5430   13.6360   52.4290 O.2   508  GLU508     -0.2864
     26  CB        30.6290   14.0970   49.4940 C.3   508  GLU508      0.0415
     27  CG        31.4670   15.0740   48.7000 C.3   508  GLU508      0.1163
     28  CD        30.6540   16.0950   47.9480 C.2   508  GLU508      0.3649
     29  OE1       29.5130   15.7850   47.5400 O.co2 508  GLU508     -0.2457
     30  OE2       31.1580   17.2220   47.7660 O.co2 508  GLU508     -0.2457
     31  N         31.4750   14.3120   54.8410 N.3   511  GLU511     -0.1245
     32  CA        31.2620   15.7650   54.9250 C.3   511  GLU511      0.1567
     33  C         29.8400   16.1060   55.3300 C.2   511  GLU511      0.2260
     34  O         29.6140   16.9790   56.1680 O.2   511  GLU511     -0.2867
     35  CB        31.4580   16.4300   53.5770 C.3   511  GLU511      0.0388
     36  CG        32.8530   16.6160   53.1100 C.3   511  GLU511      0.1160
     37  CD        32.8770   17.3460   51.7790 C.2   511  GLU511      0.3649
     38  OE1       31.9040   17.1930   51.0050 O.co2 511  GLU511     -0.2457
     39  OE2       33.8530   18.0640   51.4940 O.co2 511  GLU511     -0.2457
     40  N         42.8030   17.8920   45.4530 N.3   576  GLN576     -0.1245
     41  CA        41.5720   17.7250   46.2150 C.3   576  GLN576      0.1566
     42  C         41.6080   16.4780   47.0810 C.2   576  GLN576      0.2260
     43  O         41.1240   16.4980   48.2200 O.2   576  GLN576     -0.2867
     44  CB        40.3500   17.6740   45.3030 C.3   576  GLN576      0.0367
     45  CG        39.0680   18.0150   46.0380 C.3   576  GLN576      0.0905
     46  CD        39.0280   19.4760   46.4380 C.2   576  GLN576      0.2608
     47  OE1       38.9790   20.3540   45.5850 O.2   576  GLN576     -0.2717
     48  NE2       39.0850   19.7440   47.7410 N.am  576  GLN576     -0.0878
     49  N         41.1900   16.4030   51.0670 N.3   580  ASP580     -0.1239
     50  CA        40.2170   15.5450   51.7440 C.3   580  ASP580      0.1674
     51  C         40.8920   14.5670   52.7080 C.2   580  ASP580      0.2266
     52  O         40.4010   14.3590   53.8260 O.2   580  ASP580     -0.2867
     53  CB        39.3850   14.7390   50.7310 C.3   580  ASP580      0.1410
     54  CG        38.3420   15.5700   49.9770 C.2   580  ASP580      0.3668
     55  OD1       38.1460   16.7610   50.2760 O.co2 580  ASP580     -0.2456
     56  OD2       37.6920   14.9970   49.0720 O.co2 580  ASP580     -0.2456
     57  N         33.5030   19.6630   40.9690 N.3   679  PRO679     -0.2102
     58  CA        32.9190   19.7330   42.3180 C.3   679  PRO679      0.1504
     59  C         33.8080   20.3070   43.4150 C.2   679  PRO679      0.2576
     60  O         33.3310   20.4980   44.5430 O.2   679  PRO679     -0.2718
     61  CB        32.6390   18.2650   42.6320 C.3   679  PRO679      0.0282
     62  CG        33.7440   17.5350   41.9270 C.3   679  PRO679      0.0208
     63  CD        33.9910   18.3050   40.6550 C.3   679  PRO679      0.0893
     64  N         35.0700   20.5780   43.0950 N.am  680  GLY680     -0.1943
     65  CA        36.0900   20.9000   44.0930 C.3   680  GLY680      0.2014
     66  C         35.9560   22.2400   44.7900 C.2   680  GLY680      0.2638
     67  O         34.9780   22.9690   44.5980 O.2   680  GLY680     -0.2714
     68  N         36.9430   22.5480   45.6270 N.am  681  ASP681     -0.1971
     69  CA        36.9800   23.8330   46.3340 C.3   681  ASP681      0.1709
     70  C         38.2720   24.5930   46.0810 C.2   681  ASP681      0.2293
     71  O         38.6700   25.4530   46.8740 O.2   681  ASP681     -0.2864
     72  CB        36.7150   23.6700   47.8420 C.3   681  ASP681      0.1436
     73  CG        37.8750   23.0360   48.5950 C.2   681  ASP681      0.3671
     74  OD1       38.8430   22.5580   47.9620 O.co2 681  ASP681     -0.2456
     75  OD2       37.8050   23.0150   49.8480 O.co2 681  ASP681     -0.2456
     76  N         30.5330   24.2710   50.0560 N.3   775  ASN775     -0.1240
     77  CA        31.8670   23.7270   49.8060 C.3   775  ASN775      0.1653
     78  C         33.0060   24.7120   50.0060 C.2   775  ASN775      0.2266
     79  O         34.1730   24.3130   49.9690 O.2   775  ASN775     -0.2867
     80  CB        31.9640   23.2080   48.3730 C.3   775  ASN775      0.1155
     81  CG        31.9570   24.3330   47.3570 C.2   775  ASN775      0.2627
     82  OD1       30.9640   25.0450   47.2300 O.2   775  ASN775     -0.2716
     83  ND2       33.0610   24.5130   46.6470 N.am  775  ASN775     -0.0877
     84  N         33.5670   25.2370   54.8450 N.3   788  ASN788     -0.1240
     85  CA        32.2830   24.6490   54.4770 C.3   788  ASN788      0.1653
     86  C         31.1080   25.4410   55.0390 C.2   788  ASN788      0.2266
     87  O         30.1470   24.8740   55.5520 O.2   788  ASN788     -0.2867
     88  CB        32.2260   23.1650   54.8740 C.3   788  ASN788      0.1155
     89  CG        33.2080   22.3230   54.0850 C.2   788  ASN788      0.2627
     90  OD1       33.7910   22.7970   53.1150 O.2   788  ASN788     -0.2716
     91  ND2       33.3920   21.0750   54.4950 N.am  788  ASN788     -0.0877
     92  N         26.9230   20.6770   54.0260 N.3   811  ARG811     -0.1245
     93  CA        28.0740   20.0830   54.6850 C.3   811  ARG811      0.1563
     94  C         28.1370   20.5110   56.1560 C.2   811  ARG811      0.2260
     95  O         27.7520   21.6300   56.5160 O.2   811  ARG811     -0.2867
     96  CB        29.3510   20.4330   53.9270 C.3   811  ARG811      0.0307
     97  CG        29.4200   19.7160   52.5840 C.3   811  ARG811      0.0489
     98  CD        30.6330   20.1420   51.7850 C.3   811  ARG811      0.2205
     99  NE        30.6450   19.6210   50.4170 N.pl3 811  ARG811     -0.0865
    100  CZ        30.0140   20.1960   49.3970 C.cat 811  ARG811      0.5346
    101  NH1       29.2940   21.2970   49.5940 N.pl3 811  ARG811      0.1354
    102  NH2       30.1020   19.6700   48.1810 N.pl3 811  ARG811      0.1354
@<TRIPOS>BOND
     1    63    57    1
     2    63    62    1
     3    57    58    1
     4    62    61    1
     5    58    61    1
     6    58    59    1
     7    64    59   am
     8    64    65    1
     9     9     7   am
    10    59    60    2
    11    65    66    1
    12     7     8    2
    13     7     6    1
    14    67    66    2
    15    66    68   am
    16     6     5    1
    17     5     2    1
    18    44    45    1
    19    44    41    1
    20    40    41    1
    21    47    46    2
    22    68    69    1
    23     1     2    1
    24    45    46    1
    25    70    69    1
    26    70    71    2
    27    41    42    1
    28    69    72    1
    29     2     3    1
    30    46    48   am
    31    83    81   am
    32     3     4    2
    33    42    43    2
    34    82    81    2
    35    81    80    1
    36    29    28   ar
    37    30    28   ar
    38    72    73    1
    39    28    27    1
    40    74    73   ar
    41   102   100    1
    42    80    77    1
    43    73    75   ar
    44    27    26    1
    45    56    54   ar
    46   100   101    1
    47   100    99    2
    48    26    23    1
    49    77    78    1
    50    77    76    1
    51    79    78    2
    52    54    55   ar
    53    54    53    1
    54    10    11    1
    55    99    98    1
    56    22    23    1
    57    22    12   am
    58    53    50    1
    59    23    24    1
    60    38    37   ar
    61    14    11    1
    62    14    15    1
    63    49    50    1
    64    11    12    1
    65    39    37   ar
    66    12    13    2
    67    24    25    2
    68    50    51    1
    69    37    36    1
    70    98    97    1
    71    15    17   ar
    72    15    16   ar
    73    17    19   ar
    74    97    96    1
    75    51    52    2
    76    36    35    1
    77    90    89    2
    78    16    18   ar
    79    19    20   ar
    80    35    32    1
    81    96    93    1
    82    92    93    1
    83    89    91   am
    84    89    88    1
    85    85    84    1
    86    85    88    1
    87    85    86    1
    88    18    20   ar
    89    20    21    1
    90    93    94    1
    91    31    32    1
    92    32    33    1
    93    86    87    2
    94    33    34    2
    95    94    95    2
