@<TRIPOS>MOLECULE
tmp/2eabA00.pdb
 93 85 0 0 0
SMALL
GASTEIGER

@<TRIPOS>ATOM
      1  N         34.1850   10.7150   50.0570 N.3   507  TYR507     -0.1241
      2  CA        34.4550   11.5770   51.2040 C.3   507  TYR507      0.1605
      3  C         33.2550   12.4600   51.5570 C.2   507  TYR507      0.2264
      4  O         33.0230   12.7630   52.7320 O.2   507  TYR507     -0.2867
      5  CB        35.7250   12.4210   51.0050 C.3   507  TYR507      0.0534
      6  CG        36.0340   13.2330   52.2400 C.ar  507  TYR507     -0.0201
      7  CD1       36.5130   12.6150   53.3890 C.ar  507  TYR507     -0.0009
      8  CD2       35.7950   14.6070   52.2840 C.ar  507  TYR507     -0.0009
      9  CE1       36.7630   13.3380   54.5500 C.ar  507  TYR507      0.0417
     10  CE2       36.0490   15.3420   53.4500 C.ar  507  TYR507      0.0417
     11  CZ        36.5280   14.6930   54.5750 C.ar  507  TYR507      0.1957
     12  OH        36.7790   15.3920   55.7400 O.3   507  TYR507     -0.2866
     13  N         31.4750   14.3120   54.8410 N.3   511  GLU511     -0.1245
     14  CA        31.2620   15.7650   54.9250 C.3   511  GLU511      0.1567
     15  C         29.8400   16.1060   55.3300 C.2   511  GLU511      0.2260
     16  O         29.6140   16.9790   56.1680 O.2   511  GLU511     -0.2867
     17  CB        31.4580   16.4300   53.5770 C.3   511  GLU511      0.0388
     18  CG        32.8530   16.6160   53.1100 C.3   511  GLU511      0.1160
     19  CD        32.8770   17.3460   51.7790 C.2   511  GLU511      0.3649
     20  OE1       31.9040   17.1930   51.0050 O.co2 511  GLU511     -0.2457
     21  OE2       33.8530   18.0640   51.4940 O.co2 511  GLU511     -0.2457
     22  N         42.8030   17.8920   45.4530 N.3   576  GLN576     -0.1245
     23  CA        41.5720   17.7250   46.2150 C.3   576  GLN576      0.1566
     24  C         41.6080   16.4780   47.0810 C.2   576  GLN576      0.2260
     25  O         41.1240   16.4980   48.2200 O.2   576  GLN576     -0.2867
     26  CB        40.3500   17.6740   45.3030 C.3   576  GLN576      0.0367
     27  CG        39.0680   18.0150   46.0380 C.3   576  GLN576      0.0905
     28  CD        39.0280   19.4760   46.4380 C.2   576  GLN576      0.2608
     29  OE1       38.9790   20.3540   45.5850 O.2   576  GLN576     -0.2717
     30  NE2       39.0850   19.7440   47.7410 N.am  576  GLN576     -0.0878
     31  N         43.7800   17.0980   50.0400 N.3   579  ASN579     -0.1225
     32  CA        43.0210   17.9990   50.8970 C.3   579  ASN579      0.1785
     33  C         42.0000   17.2220   51.7390 C.2   579  ASN579      0.2597
     34  O         41.9680   17.3470   52.9730 O.2   579  ASN579     -0.2718
     35  CB        42.3360   19.0560   50.0280 C.3   579  ASN579      0.1169
     36  CG        42.0110   20.3280   50.7870 C.2   579  ASN579      0.2627
     37  OD1       42.1610   20.4130   52.0080 O.2   579  ASN579     -0.2716
     38  ND2       41.5640   21.3360   50.0550 N.am  579  ASN579     -0.0877
     39  N         41.1900   16.4030   51.0670 N.am  580  ASP580     -0.1974
     40  CA        40.2170   15.5450   51.7440 C.3   580  ASP580      0.1709
     41  C         40.8920   14.5670   52.7080 C.2   580  ASP580      0.2293
     42  O         40.4010   14.3590   53.8260 O.2   580  ASP580     -0.2864
     43  CB        39.3850   14.7390   50.7310 C.3   580  ASP580      0.1436
     44  CG        38.3420   15.5700   49.9770 C.2   580  ASP580      0.3671
     45  OD1       38.1460   16.7610   50.2760 O.co2 580  ASP580     -0.2456
     46  OD2       37.6920   14.9970   49.0720 O.co2 580  ASP580     -0.2456
     47  N         41.9720   16.2830   55.8260 N.3   583  GLU583     -0.1245
     48  CA        40.8040   16.5370   56.6650 C.3   583  GLU583      0.1567
     49  C         40.3020   15.2830   57.3700 C.2   583  GLU583      0.2260
     50  O         39.9510   15.3300   58.5580 O.2   583  GLU583     -0.2867
     51  CB        39.6910   17.2190   55.8720 C.3   583  GLU583      0.0388
     52  CG        40.0520   18.6300   55.4470 C.3   583  GLU583      0.1160
     53  CD        40.4970   19.4750   56.6300 C.2   583  GLU583      0.3649
     54  OE1       39.7020   19.6250   57.5880 O.co2 583  GLU583     -0.2457
     55  OE2       41.6430   19.9670   56.6220 O.co2 583  GLU583     -0.2457
     56  N         36.9430   22.5480   45.6270 N.3   681  ASP681     -0.1239
     57  CA        36.9800   23.8330   46.3340 C.3   681  ASP681      0.1674
     58  C         38.2720   24.5930   46.0810 C.2   681  ASP681      0.2266
     59  O         38.6700   25.4530   46.8740 O.2   681  ASP681     -0.2867
     60  CB        36.7150   23.6700   47.8420 C.3   681  ASP681      0.1410
     61  CG        37.8750   23.0360   48.5950 C.2   681  ASP681      0.3668
     62  OD1       38.8430   22.5580   47.9620 O.co2 681  ASP681     -0.2456
     63  OD2       37.8050   23.0150   49.8480 O.co2 681  ASP681     -0.2456
     64  N         30.5330   24.2710   50.0560 N.3   775  ASN775     -0.1240
     65  CA        31.8670   23.7270   49.8060 C.3   775  ASN775      0.1653
     66  C         33.0060   24.7120   50.0060 C.2   775  ASN775      0.2266
     67  O         34.1730   24.3130   49.9690 O.2   775  ASN775     -0.2867
     68  CB        31.9640   23.2080   48.3730 C.3   775  ASN775      0.1155
     69  CG        31.9570   24.3330   47.3570 C.2   775  ASN775      0.2627
     70  OD1       30.9640   25.0450   47.2300 O.2   775  ASN775     -0.2716
     71  ND2       33.0610   24.5130   46.6470 N.am  775  ASN775     -0.0877
     72  N         35.3550   28.0780   51.6240 N.3   777  THR777     -0.1218
     73  CA        35.9440   28.5660   52.8650 C.3   777  THR777      0.1862
     74  C         35.9920   30.0870   52.8140 C.2   777  THR777      0.2287
     75  O         36.4890   30.6740   51.8500 O.2   777  THR777     -0.2866
     76  CB        37.3490   27.9790   53.0760 C.3   777  THR777      0.1770
     77  OG1       37.2380   26.5650   53.2720 O.3   777  THR777     -0.2211
     78  CG2       38.0360   28.5960   54.2890 C.3   777  THR777      0.0375
     79  N         35.2260   27.0800   57.3440 N.3   787  VAL787     -0.1231
     80  CA        35.3060   26.0390   56.3320 C.3   787  VAL787      0.1692
     81  C         33.9300   25.4280   56.1140 C.2   787  VAL787      0.2592
     82  O         33.2210   25.1130   57.0780 O.2   787  VAL787     -0.2718
     83  CB        36.3230   24.9560   56.7560 C.3   787  VAL787      0.0266
     84  CG1       36.3700   23.8200   55.7480 C.3   787  VAL787      0.0020
     85  CG2       37.7130   25.5620   56.9360 C.3   787  VAL787      0.0020
     86  N         33.5670   25.2370   54.8450 N.am  788  ASN788     -0.1974
     87  CA        32.2830   24.6490   54.4770 C.3   788  ASN788      0.1688
     88  C         31.1080   25.4410   55.0390 C.2   788  ASN788      0.2292
     89  O         30.1470   24.8740   55.5520 O.2   788  ASN788     -0.2864
     90  CB        32.2260   23.1650   54.8740 C.3   788  ASN788      0.1181
     91  CG        33.2080   22.3230   54.0850 C.2   788  ASN788      0.2629
     92  OD1       33.7910   22.7970   53.1150 O.2   788  ASN788     -0.2716
     93  ND2       33.3920   21.0750   54.4950 N.am  788  ASN788     -0.0877
@<TRIPOS>BOND
     1    26    27    1
     2    26    23    1
     3    22    23    1
     4    29    28    2
     5    56    57    1
     6    27    28    1
     7    58    57    1
     8    58    59    2
     9    23    24    1
    10    57    60    1
    11    28    30   am
    12    71    69   am
    13    24    25    2
    14    70    69    2
    15    69    68    1
    16    60    61    1
    17    62    61   ar
    18    68    65    1
    19    61    63   ar
    20    46    44   ar
    21    65    66    1
    22    65    64    1
    23    67    66    2
    24    44    45   ar
    25    44    43    1
    26    35    36    1
    27    35    32    1
    28    31    32    1
    29    38    36   am
    30     1     2    1
    31    43    40    1
    32    36    37    2
    33    32    33    1
    34     5     2    1
    35     5     6    1
    36    20    19   ar
    37    39    33   am
    38    39    40    1
    39     2     3    1
    40    21    19   ar
    41     3     4    2
    42    72    73    1
    43    33    34    2
    44    40    41    1
    45    19    18    1
    46    75    74    2
    47     6     8   ar
    48     6     7   ar
    49     8    10   ar
    50    41    42    2
    51    74    73    1
    52    73    76    1
    53    76    77    1
    54    76    78    1
    55    18    17    1
    56    92    91    2
    57     7     9   ar
    58    10    11   ar
    59    17    14    1
    60    91    93   am
    61    91    90    1
    62    87    86    1
    63    87    90    1
    64    87    88    1
    65     9    11   ar
    66    11    12    1
    67    13    14    1
    68    86    81   am
    69    14    15    1
    70    88    89    2
    71    15    16    2
    72    52    51    1
    73    52    53    1
    74    84    83    1
    75    47    48    1
    76    51    48    1
    77    81    80    1
    78    81    82    2
    79    80    83    1
    80    80    79    1
    81    55    53   ar
    82    53    54   ar
    83    48    49    1
    84    83    85    1
    85    49    50    2
