@<TRIPOS>MOLECULE
tmp/2eacA00.pdb
 119 115 0 0 0
SMALL
GASTEIGER

@<TRIPOS>ATOM
      1  N         68.4140   61.2160   61.4220 N.3   385  LEU385     -0.1245
      2  CA        67.9490   60.1340   62.3300 C.3   385  LEU385      0.1561
      3  C         66.4390   59.9490   62.3350 C.2   385  LEU385      0.2260
      4  O         65.9380   58.8800   62.7570 O.2   385  LEU385     -0.2867
      5  CB        68.3870   60.3810   63.7700 C.3   385  LEU385      0.0270
      6  CG        69.8520   60.1180   64.1250 C.3   385  LEU385      0.0019
      7  CD1       70.1440   60.5890   65.5590 C.3   385  LEU385      0.0001
      8  CD2       70.2060   58.5990   63.9670 C.3   385  LEU385      0.0001
      9  N         69.7360   62.8040   70.3170 N.3   403  TRP403     -0.1241
     10  CA        70.9240   62.7500   69.4380 C.3   403  TRP403      0.1605
     11  C         70.8670   63.7960   68.3070 C.2   403  TRP403      0.2264
     12  O         71.4740   63.6130   67.2330 O.2   403  TRP403     -0.2867
     13  CB        71.1290   61.3460   68.8480 C.3   403  TRP403      0.0550
     14  CG        71.1440   60.2000   69.8730 C.ar  403  TRP403      0.0003
     15  CD1       72.1700   59.8460   70.7100 C.ar  403  TRP403      0.0946
     16  CD2       70.0970   59.2480   70.0990 C.ar  403  TRP403      0.0152
     17  NE1       71.8120   58.7370   71.4540 N.ar  403  TRP403     -0.2442
     18  CE2       70.5460   58.3550   71.0940 C.ar  403  TRP403      0.0810
     19  CE3       68.8190   59.0640   69.5540 C.ar  403  TRP403      0.0012
     20  CZ2       69.7490   57.3130   71.5710 C.ar  403  TRP403      0.0191
     21  CZ3       68.0400   58.0270   70.0200 C.ar  403  TRP403      0.0001
     22  CH2       68.4980   57.1740   71.0150 C.ar  403  TRP403      0.0015
     23  N         74.2570   60.3410   61.8390 N.3   408  HIS408     -0.1241
     24  CA        74.9850   59.5350   62.7860 C.3   408  HIS408      0.1621
     25  C         75.6320   58.3850   62.0210 C.2   408  HIS408      0.2264
     26  O         74.9300   57.4870   61.5220 O.2   408  HIS408     -0.2867
     27  CB        73.9900   59.0140   63.8280 C.3   408  HIS408      0.0745
     28  CG        74.3630   59.3380   65.2360 C.ar  408  HIS408      0.0817
     29  ND1       75.0290   58.4430   66.0530 N.ar  408  HIS408     -0.2268
     30  CD2       74.1530   60.4540   65.9810 C.ar  408  HIS408      0.1154
     31  CE1       75.2140   58.9980   67.2410 C.ar  408  HIS408      0.1986
     32  NE2       74.6920   60.2120   67.2230 N.ar  408  HIS408     -0.2212
     33  N         77.9610   55.9720   62.6650 N.3   410  ASN410     -0.1240
     34  CA        78.5240   54.7180   63.1720 C.3   410  ASN410      0.1653
     35  C         77.5460   53.5510   63.0950 C.2   410  ASN410      0.2266
     36  O         77.7120   52.5620   63.8340 O.2   410  ASN410     -0.2867
     37  CB        79.1820   54.8380   64.5730 C.3   410  ASN410      0.1155
     38  CG        78.1700   55.0070   65.6980 C.2   410  ASN410      0.2627
     39  OD1       77.0240   55.3970   65.4570 O.2   410  ASN410     -0.2716
     40  ND2       78.5980   54.7240   66.9430 N.am  410  ASN410     -0.0877
     41  N         73.8440   54.4190   61.8010 N.3   412  ASN412     -0.1240
     42  CA        72.4760   54.8270   61.5510 C.3   412  ASN412      0.1653
     43  C         72.2490   55.4080   60.1600 C.2   412  ASN412      0.2266
     44  O         71.2440   55.0560   59.4950 O.2   412  ASN412     -0.2867
     45  CB        71.9540   55.7860   62.6340 C.3   412  ASN412      0.1155
     46  CG        72.2930   55.3150   64.0210 C.2   412  ASN412      0.2627
     47  OD1       73.3950   55.5320   64.4930 O.2   412  ASN412     -0.2716
     48  ND2       71.3580   54.6410   64.6610 N.am  412  ASN412     -0.0877
     49  N         79.4680   50.0850   70.4600 N.3   555  GLU555     -0.1245
     50  CA        79.8330   51.0900   71.4530 C.3   555  GLU555      0.1567
     51  C         80.0050   50.3430   72.7870 C.2   555  GLU555      0.2260
     52  O         79.2300   50.5110   73.7140 O.2   555  GLU555     -0.2867
     53  CB        78.7770   52.2040   71.5490 C.3   555  GLU555      0.0388
     54  CG        78.8530   53.2500   70.3980 C.3   555  GLU555      0.1160
     55  CD        77.9300   54.4610   70.5850 C.2   555  GLU555      0.3649
     56  OE1       77.8740   55.3150   69.6450 O.co2 555  GLU555     -0.2457
     57  OE2       77.2400   54.5470   71.6460 O.co2 555  GLU555     -0.2457
     58  N         73.8690   46.0730   71.4620 N.3   666  ARG666     -0.1231
     59  CA        73.0600   46.4540   70.3230 C.3   666  ARG666      0.1694
     60  C         73.8660   46.4940   69.0160 C.2   666  ARG666      0.2592
     61  O         73.3780   46.0540   67.9710 O.2   666  ARG666     -0.2718
     62  CB        72.3440   47.7780   70.5920 C.3   666  ARG666      0.0321
     63  CG        73.2450   48.9690   70.9730 C.3   666  ARG666      0.0489
     64  CD        72.3850   50.1270   71.6030 C.3   666  ARG666      0.2205
     65  NE        73.2360   51.3090   71.7230 N.pl3 666  ARG666     -0.0865
     66  CZ        74.2180   51.4450   72.6200 C.cat 666  ARG666      0.5346
     67  NH1       74.4200   50.4980   73.5370 N.pl3 666  ARG666      0.1354
     68  NH2       74.9820   52.5420   72.6070 N.pl3 666  ARG666      0.1354
     69  N         75.0830   47.0390   69.0850 N.am  667  HIS667     -0.1976
     70  CA        76.0040   47.0940   67.9220 C.3   667  HIS667      0.1656
     71  C         76.5970   45.7000   67.6870 C.2   667  HIS667      0.2291
     72  O         76.7790   44.9250   68.6360 O.2   667  HIS667     -0.2864
     73  CB        77.1440   48.1020   68.1810 C.3   667  HIS667      0.0771
     74  CG        76.7130   49.5390   68.1920 C.ar  667  HIS667      0.0820
     75  ND1       76.8450   50.3690   67.0880 N.ar  667  HIS667     -0.2267
     76  CD2       76.1610   50.2990   69.1720 C.ar  667  HIS667      0.1154
     77  CE1       76.3710   51.5690   67.3870 C.ar  667  HIS667      0.1986
     78  NE2       75.9600   51.5560   68.6450 N.ar  667  HIS667     -0.2212
     79  N         66.8130   49.5440   65.4520 N.3   711  TRP711     -0.1241
     80  CA        67.9100   49.4880   64.4900 C.3   711  TRP711      0.1605
     81  C         68.8000   48.2510   64.7060 C.2   711  TRP711      0.2264
     82  O         69.3260   47.6780   63.7370 O.2   711  TRP711     -0.2867
     83  CB        68.7570   50.7770   64.4970 C.3   711  TRP711      0.0550
     84  CG        69.6560   50.9980   65.6980 C.ar  711  TRP711      0.0003
     85  CD1       69.4150   51.8340   66.7770 C.ar  711  TRP711      0.0946
     86  CD2       70.9240   50.3760   65.9590 C.ar  711  TRP711      0.0152
     87  NE1       70.4490   51.7500   67.6860 N.ar  711  TRP711     -0.2442
     88  CE2       71.3920   50.8800   67.2100 C.ar  711  TRP711      0.0810
     89  CE3       71.7050   49.4260   65.2720 C.ar  711  TRP711      0.0012
     90  CZ2       72.5980   50.4870   67.7660 C.ar  711  TRP711      0.0191
     91  CZ3       72.9110   49.0380   65.8370 C.ar  711  TRP711      0.0001
     92  CH2       73.3440   49.5720   67.0690 C.ar  711  TRP711      0.0015
     93  N         63.5860   53.2050   69.0220 N.3   749  HIS749     -0.1241
     94  CA        64.7810   52.7930   69.7090 C.3   749  HIS749      0.1621
     95  C         64.5110   52.2660   71.1580 C.2   749  HIS749      0.2264
     96  O         65.0950   51.2520   71.5090 O.2   749  HIS749     -0.2867
     97  CB        65.7840   53.9590   69.6160 C.3   749  HIS749      0.0745
     98  CG        67.0880   53.7250   70.2970 C.ar  749  HIS749      0.0817
     99  ND1       67.2120   53.7010   71.6710 N.ar  749  HIS749     -0.2268
    100  CD2       68.3400   53.5880   69.7980 C.ar  749  HIS749      0.1154
    101  CE1       68.4840   53.5200   71.9860 C.ar  749  HIS749      0.1986
    102  NE2       69.1900   53.4580   70.8690 N.ar  749  HIS749     -0.2212
    103  N         63.1540   56.3910   65.8430 N.3   753  GLN753     -0.1245
    104  CA        64.3680   56.4920   65.0630 C.3   753  GLN753      0.1566
    105  C         64.0530   55.8190   63.7520 C.2   753  GLN753      0.2260
    106  O         63.6030   54.6750   63.7400 O.2   753  GLN753     -0.2867
    107  CB        65.5120   55.7330   65.7500 C.3   753  GLN753      0.0367
    108  CG        66.0300   56.4310   67.0260 C.3   753  GLN753      0.0905
    109  CD        66.7670   57.7140   66.6960 C.2   753  GLN753      0.2608
    110  OE1       66.2110   58.8350   66.7860 O.2   753  GLN753     -0.2717
    111  NE2       68.0090   57.5630   66.2740 N.am  753  GLN753     -0.0878
    112  N         66.0220   54.8430   61.3070 N.3   755  ASP755     -0.1239
    113  CA        66.9690   53.8300   60.8440 C.3   755  ASP755      0.1674
    114  C         66.3090   52.4530   60.6760 C.2   755  ASP755      0.2266
    115  O         66.4610   51.8300   59.6260 O.2   755  ASP755     -0.2867
    116  CB        68.2160   53.7270   61.7500 C.3   755  ASP755      0.1410
    117  CG        67.8940   53.8370   63.2560 C.2   755  ASP755      0.3668
    118  OD1       66.8000   53.3890   63.7150 O.co2 755  ASP755     -0.2456
    119  OD2       68.7800   54.3770   63.9730 O.co2 755  ASP755     -0.2456
@<TRIPOS>BOND
     1    44    43    2
     2   115   114    2
     3    43    42    1
     4   114   113    1
     5   113   112    1
     6   113   116    1
     7     1     2    1
     8    26    25    2
     9    42    41    1
    10    42    45    1
    11   116   117    1
    12    23    24    1
    13    25    24    1
    14     2     3    1
    15     2     5    1
    16     3     4    2
    17    45    46    1
    18    33    34    1
    19    24    27    1
    20    35    34    1
    21    35    36    2
    22    34    37    1
    23   117   118   ar
    24   117   119   ar
    25    82    81    2
    26   106   105    2
    27   105   104    1
    28     5     6    1
    29    27    28    1
    30     8     6    1
    31    46    47    2
    32    46    48   am
    33     6     7    1
    34    80    83    1
    35    80    81    1
    36    80    79    1
    37    83    84    1
    38    37    38    1
    39   104   107    1
    40   104   103    1
    41    28    30   ar
    42    28    29   ar
    43    89    91   ar
    44    89    86   ar
    45    39    38    2
    46    38    40   am
    47    84    86   ar
    48    84    85   ar
    49   107   108    1
    50    91    92   ar
    51    86    88   ar
    52    30    32   ar
    53    29    31   ar
    54   111   109   am
    55   109   110    2
    56   109   108    1
    57    85    87   ar
    58    92    90   ar
    59    75    77   ar
    60    75    74   ar
    61    88    87   ar
    62    88    90   ar
    63    32    31   ar
    64    12    11    2
    65    77    78   ar
    66    71    70    1
    67    71    72    2
    68    70    73    1
    69    70    69    1
    70    61    60    2
    71    73    74    1
    72    74    76   ar
    73    11    10    1
    74    78    76   ar
    75    13    10    1
    76    13    14    1
    77    60    69   am
    78    60    59    1
    79    93    94    1
    80    10     9    1
    81    19    21   ar
    82    19    16   ar
    83    97    94    1
    84    97    98    1
    85    56    55   ar
    86    94    95    1
    87   100    98   ar
    88   100   102   ar
    89    14    16   ar
    90    14    15   ar
    91    21    22   ar
    92    16    18   ar
    93    98    99   ar
    94    59    62    1
    95    59    58    1
    96    54    55    1
    97    54    53    1
    98    49    50    1
    99    55    57   ar
   100    62    63    1
   101    15    17   ar
   102   102   101   ar
   103    63    64    1
   104    22    20   ar
   105    18    17   ar
   106    18    20   ar
   107    95    96    2
   108    50    53    1
   109    50    51    1
   110    64    65    1
   111    99   101   ar
   112    65    66    2
   113    68    66    1
   114    66    67    1
   115    51    52    2
