@<TRIPOS>MOLECULE
tmp/2eadB00.pdb
 147 144 0 0 0
SMALL
GASTEIGER

@<TRIPOS>ATOM
      1  N         61.4330  -40.3520   90.9030 N.3   384  LEU384     -0.1245
      2  CA        61.9810  -39.4210   89.9110 C.3   384  LEU384      0.1561
      3  C         61.7790  -39.8800   88.4740 C.2   384  LEU384      0.2260
      4  O         61.7690  -39.0490   87.5580 O.2   384  LEU384     -0.2867
      5  CB        63.4750  -39.1240   90.1550 C.3   384  LEU384      0.0270
      6  CG        63.9130  -38.2080   91.2790 C.3   384  LEU384      0.0019
      7  CD1       65.4880  -38.1460   91.3080 C.3   384  LEU384      0.0001
      8  CD2       63.2890  -36.7800   91.1470 C.3   384  LEU384      0.0001
      9  N         73.6040  -42.0160   94.7640 N.3   397  HIS397     -0.1241
     10  CA        74.4610  -41.1200   93.9920 C.3   397  HIS397      0.1621
     11  C         75.4990  -41.9310   93.2210 C.2   397  HIS397      0.2264
     12  O         76.7050  -41.5910   93.2120 O.2   397  HIS397     -0.2867
     13  CB        75.1400  -40.1010   94.9270 C.3   397  HIS397      0.0745
     14  CG        74.1960  -39.4110   95.8710 C.ar  397  HIS397      0.0817
     15  ND1       74.2000  -39.6420   97.2330 N.ar  397  HIS397     -0.2268
     16  CD2       73.2440  -38.4710   95.6530 C.ar  397  HIS397      0.1154
     17  CE1       73.2740  -38.8900   97.8100 C.ar  397  HIS397      0.1986
     18  NE2       72.6830  -38.1640   96.8740 N.ar  397  HIS397     -0.2212
     19  N         70.4510  -39.2820   90.8730 N.3   402  TRP402     -0.1241
     20  CA        69.7530  -38.9660   92.1160 C.3   402  TRP402      0.1605
     21  C         68.9930  -40.1740   92.6210 C.2   402  TRP402      0.2264
     22  O         67.9160  -40.0420   93.2420 O.2   402  TRP402     -0.2867
     23  CB        68.8240  -37.7620   91.8930 C.3   402  TRP402      0.0550
     24  CG        69.5120  -36.5790   91.2910 C.ar  402  TRP402      0.0003
     25  CD1       70.4160  -35.7860   91.8940 C.ar  402  TRP402      0.0946
     26  CD2       69.3550  -36.0700   89.9480 C.ar  402  TRP402      0.0152
     27  NE1       70.8320  -34.7950   91.0360 N.ar  402  TRP402     -0.2442
     28  CE2       70.1970  -34.9380   89.8360 C.ar  402  TRP402      0.0810
     29  CE3       68.5820  -36.4520   88.8390 C.ar  402  TRP402      0.0012
     30  CZ2       70.2890  -34.1660   88.6530 C.ar  402  TRP402      0.0191
     31  CZ3       68.6700  -35.6750   87.6520 C.ar  402  TRP402      0.0001
     32  CH2       69.5210  -34.5630   87.5730 C.ar  402  TRP402      0.0015
     33  N         62.3320  -37.2640   95.6770 N.3   407  HIS407     -0.1241
     34  CA        63.0080  -35.9850   95.8760 C.3   407  HIS407      0.1621
     35  C         61.9410  -34.9680   96.3200 C.2   407  HIS407      0.2264
     36  O         61.1420  -34.5060   95.5120 O.2   407  HIS407     -0.2867
     37  CB        63.7400  -35.5660   94.5760 C.3   407  HIS407      0.0745
     38  CG        65.2280  -35.4620   94.7280 C.ar  407  HIS407      0.0817
     39  ND1       65.8830  -34.2570   94.8070 N.ar  407  HIS407     -0.2268
     40  CD2       66.1800  -36.4180   94.8620 C.ar  407  HIS407      0.1154
     41  CE1       67.1800  -34.4740   94.9750 C.ar  407  HIS407      0.1986
     42  NE2       67.3810  -35.7770   95.0210 N.ar  407  HIS407     -0.2212
     43  N         60.2250  -32.0400   93.3230 N.3   411  ASN411     -0.1240
     44  CA        60.0370  -33.0700   92.3060 C.3   411  ASN411      0.1653
     45  C         58.8810  -34.0390   92.6040 C.2   411  ASN411      0.2266
     46  O         58.0370  -34.2680   91.7470 O.2   411  ASN411     -0.2867
     47  CB        61.3480  -33.8350   92.0350 C.3   411  ASN411      0.1155
     48  CG        62.5620  -32.9120   91.9820 C.2   411  ASN411      0.2627
     49  OD1       63.1430  -32.5810   93.0170 O.2   411  ASN411     -0.2716
     50  ND2       62.9180  -32.4570   90.7820 N.am  411  ASN411     -0.0877
     51  N         65.0680  -33.4900  101.7940 N.3   472  THR472     -0.1203
     52  CA        64.9300  -33.5730  100.3240 C.3   472  THR472      0.1994
     53  C         64.9890  -34.9950   99.8340 C.2   472  THR472      0.2617
     54  O         64.0520  -35.4680   99.1650 O.2   472  THR472     -0.2717
     55  CB        66.0380  -32.7820   99.6320 C.3   472  THR472      0.1784
     56  OG1       65.8630  -31.4080   99.9500 O.3   472  THR472     -0.2211
     57  CG2       66.0070  -32.9620   98.1100 C.3   472  THR472      0.0376
     58  N         66.1050  -35.6740  100.1510 N.am  473  GLU473     -0.1979
     59  CA        66.3420  -37.0140   99.6120 C.3   473  GLU473      0.1602
     60  C         65.6800  -38.0700  100.4640 C.2   473  GLU473      0.2287
     61  O         66.0820  -38.2670  101.6040 O.2   473  GLU473     -0.2864
     62  CB        67.8650  -37.2950   99.5070 C.3   473  GLU473      0.0415
     63  CG        68.5660  -36.3910   98.5120 C.3   473  GLU473      0.1163
     64  CD        69.9450  -36.8720   98.1500 C.2   473  GLU473      0.3649
     65  OE1       70.5500  -37.6250   98.9420 O.co2 473  GLU473     -0.2457
     66  OE2       70.4290  -36.5020   97.0570 O.co2 473  GLU473     -0.2457
     67  N         71.9060  -29.0430   99.9020 N.3   488  TRP488     -0.1241
     68  CA        70.8370  -29.7780   99.2110 C.3   488  TRP488      0.1605
     69  C         70.1780  -30.7430  100.1780 C.2   488  TRP488      0.2264
     70  O         69.0970  -31.2640   99.8940 O.2   488  TRP488     -0.2867
     71  CB        71.3370  -30.5220   97.9620 C.3   488  TRP488      0.0550
     72  CG        72.5430  -31.3500   98.1640 C.ar  488  TRP488      0.0003
     73  CD1       73.8260  -31.0110   97.8450 C.ar  488  TRP488      0.0946
     74  CD2       72.6000  -32.6690   98.7240 C.ar  488  TRP488      0.0152
     75  NE1       74.6850  -32.0330   98.1800 N.ar  488  TRP488     -0.2442
     76  CE2       73.9530  -33.0680   98.7110 C.ar  488  TRP488      0.0810
     77  CE3       71.6370  -33.5500   99.2480 C.ar  488  TRP488      0.0012
     78  CZ2       74.3750  -34.3160   99.2010 C.ar  488  TRP488      0.0191
     79  CZ3       72.0550  -34.7820   99.7260 C.ar  488  TRP488      0.0001
     80  CH2       73.4130  -35.1540   99.7050 C.ar  488  TRP488      0.0015
     81  N         67.9320  -23.5950   95.0220 N.3   554  ALA554     -0.1245
     82  CA        69.2640  -24.0880   95.4320 C.3   554  ALA554      0.1562
     83  C         70.3110  -23.0440   95.0630 C.2   554  ALA554      0.2260
     84  O         71.2180  -23.2960   94.2650 O.2   554  ALA554     -0.2867
     85  CB        69.6050  -25.4360   94.7870 C.3   554  ALA554      0.0290
     86  N         67.0930  -22.3470   88.3210 N.3   665  ARG665     -0.1231
     87  CA        66.0290  -23.2860   87.9770 C.3   665  ARG665      0.1694
     88  C         64.9170  -23.3130   89.0090 C.2   665  ARG665      0.2592
     89  O         63.7340  -23.3410   88.6420 O.2   665  ARG665     -0.2718
     90  CB        66.6090  -24.6910   87.7430 C.3   665  ARG665      0.0321
     91  CG        67.4230  -25.2150   88.9020 C.3   665  ARG665      0.0489
     92  CD        68.2860  -26.4330   88.5170 C.3   665  ARG665      0.2205
     93  NE        69.0070  -26.9740   89.6820 N.pl3 665  ARG665     -0.0865
     94  CZ        70.0860  -26.4150   90.2470 C.cat 665  ARG665      0.5346
     95  NH1       70.6160  -25.3010   89.7490 N.pl3 665  ARG665      0.1354
     96  NH2       70.6440  -26.9740   91.3250 N.pl3 665  ARG665      0.1354
     97  N         65.2980  -23.2850   90.3000 N.am  666  HIS666     -0.1976
     98  CA        64.3340  -23.2830   91.3940 C.3   666  HIS666      0.1656
     99  C         63.7010  -21.8950   91.4870 C.2   666  HIS666      0.2291
    100  O         64.3560  -20.8940   91.1800 O.2   666  HIS666     -0.2864
    101  CB        65.0390  -23.5990   92.7250 C.3   666  HIS666      0.0771
    102  CG        65.5030  -25.0250   92.8450 C.ar  666  HIS666      0.0820
    103  ND1       64.7270  -26.0230   93.4070 N.ar  666  HIS666     -0.2267
    104  CD2       66.6630  -25.6170   92.4710 C.ar  666  HIS666      0.1154
    105  CE1       65.3850  -27.1730   93.3600 C.ar  666  HIS666      0.1986
    106  NE2       66.5620  -26.9560   92.7930 N.ar  666  HIS666     -0.2212
    107  N         61.6520  -29.8160   84.5490 N.3   710  TRP710     -0.1241
    108  CA        60.8350  -29.4950   85.7300 C.3   710  TRP710      0.1605
    109  C         60.8140  -28.0080   85.9940 C.2   710  TRP710      0.2264
    110  O         59.7890  -27.4610   86.4300 O.2   710  TRP710     -0.2867
    111  CB        61.2830  -30.2310   87.0040 C.3   710  TRP710      0.0550
    112  CG        62.6070  -29.8020   87.5810 C.ar  710  TRP710      0.0003
    113  CD1       63.8050  -30.4230   87.4000 C.ar  710  TRP710      0.0946
    114  CD2       62.8630  -28.6830   88.4590 C.ar  710  TRP710      0.0152
    115  NE1       64.7930  -29.7590   88.0870 N.ar  710  TRP710     -0.2442
    116  CE2       64.2430  -28.6920   88.7510 C.ar  710  TRP710      0.0810
    117  CE3       62.0580  -27.6680   89.0250 C.ar  710  TRP710      0.0012
    118  CZ2       64.8530  -27.7180   89.5770 C.ar  710  TRP710      0.0191
    119  CZ3       62.6690  -26.6970   89.8520 C.ar  710  TRP710      0.0001
    120  CH2       64.0510  -26.7330   90.1210 C.ar  710  TRP710      0.0015
    121  N         65.8820  -33.3980   82.0930 N.3   748  HIS748     -0.1241
    122  CA        66.5620  -32.3850   82.9080 C.3   748  HIS748      0.1621
    123  C         67.7470  -31.6940   82.1640 C.2   748  HIS748      0.2264
    124  O         67.9050  -30.4740   82.3210 O.2   748  HIS748     -0.2867
    125  CB        66.9400  -33.0090   84.2800 C.3   748  HIS748      0.0745
    126  CG        67.6610  -32.0940   85.2240 C.ar  748  HIS748      0.0817
    127  ND1       68.9920  -31.7650   85.0660 N.ar  748  HIS748     -0.2268
    128  CD2       67.2710  -31.5280   86.3930 C.ar  748  HIS748      0.1154
    129  CE1       69.3740  -30.9870   86.0660 C.ar  748  HIS748      0.1986
    130  NE2       68.3500  -30.8330   86.8870 N.ar  748  HIS748     -0.2212
    131  N         63.7290  -37.2230   83.4750 N.3   752  GLN752     -0.1245
    132  CA        63.1220  -36.9760   84.7920 C.3   752  GLN752      0.1566
    133  C         61.6290  -36.8020   84.5580 C.2   752  GLN752      0.2260
    134  O         61.2430  -35.9680   83.7530 O.2   752  GLN752     -0.2867
    135  CB        63.6780  -35.7100   85.4410 C.3   752  GLN752      0.0367
    136  CG        65.1450  -35.8380   85.9190 C.3   752  GLN752      0.0905
    137  CD        65.2770  -36.7810   87.1010 C.2   752  GLN752      0.2608
    138  OE1       65.6130  -37.9790   86.9540 O.2   752  GLN752     -0.2717
    139  NE2       65.0490  -36.2610   88.2620 N.am  752  GLN752     -0.0878
    140  N         59.2330  -35.7380   86.5100 N.3   754  ASP754     -0.1239
    141  CA        58.6310  -34.5290   87.0860 C.3   754  ASP754      0.1674
    142  C         57.9990  -33.5780   86.0620 C.2   754  ASP754      0.2266
    143  O         56.8000  -33.2710   86.1700 O.2   754  ASP754     -0.2867
    144  CB        59.6130  -33.7790   88.0170 C.3   754  ASP754      0.1410
    145  CG        61.0340  -33.6530   87.4470 C.2   754  ASP754      0.3668
    146  OD1       61.2500  -33.5440   86.2130 O.co2 754  ASP754     -0.2456
    147  OD2       61.9500  -33.5860   88.2720 O.co2 754  ASP754     -0.2456
@<TRIPOS>BOND
     1   121   122    1
     2   123   124    2
     3   123   122    1
     4   122   125    1
     5   131   132    1
     6   134   133    2
     7   125   126    1
     8   107   108    1
     9   133   132    1
    10   132   135    1
    11   127   126   ar
    12   127   129   ar
    13   126   128   ar
    14   135   136    1
    15   108   109    1
    16   108   111    1
    17   136   137    1
    18   109   110    2
    19   142   143    2
    20   142   141    1
    21   129   130   ar
    22   146   145   ar
    23   128   130   ar
    24   140   141    1
    25   138   137    2
    26   111   112    1
    27   141   144    1
    28   137   139   am
    29   113   112   ar
    30   113   115   ar
    31   145   144    1
    32   145   147   ar
    33     4     3    2
    34    32    31   ar
    35    32    30   ar
    36   112   114   ar
    37    31    29   ar
    38    90    87    1
    39    90    91    1
    40    87    86    1
    41    87    88    1
    42   115   116   ar
    43   114   116   ar
    44   114   117   ar
    45     3     2    1
    46    92    91    1
    47    92    93    1
    48    89    88    2
    49    30    28   ar
    50   116   118   ar
    51    29    26   ar
    52    88    97   am
    53   117   119   ar
    54   118   120   ar
    55    93    94    2
    56    95    94    1
    57    28    26   ar
    58    28    27   ar
    59   119   120   ar
    60     2     5    1
    61     2     1    1
    62    26    24   ar
    63     5     6    1
    64    94    96    1
    65    97    98    1
    66    50    48   am
    67    19    20    1
    68    27    25   ar
    69     8     6    1
    70   100    99    2
    71     6     7    1
    72    24    23    1
    73    24    25   ar
    74    98    99    1
    75    98   101    1
    76    46    45    2
    77    23    20    1
    78    48    47    1
    79    48    49    2
    80    47    44    1
    81    20    21    1
    82    44    45    1
    83    44    43    1
    84   104   106   ar
    85   104   102   ar
    86    21    22    2
    87   101   102    1
    88   106   105   ar
    89   102   103   ar
    90    12    11    2
    91    11    10    1
    92   105   103   ar
    93    10     9    1
    94    10    13    1
    95    84    83    2
    96    37    38    1
    97    37    34    1
    98    38    39   ar
    99    38    40   ar
   100    85    82    1
   101    39    41   ar
   102    40    42   ar
   103    13    14    1
   104    41    42   ar
   105    81    82    1
   106    83    82    1
   107    36    35    2
   108    16    14   ar
   109    16    18   ar
   110    33    34    1
   111    14    15   ar
   112    34    35    1
   113    18    17   ar
   114    66    64   ar
   115    15    17   ar
   116    73    72   ar
   117    73    75   ar
   118    71    72    1
   119    71    68    1
   120    57    55    1
   121    64    63    1
   122    64    65   ar
   123    72    74   ar
   124    75    76   ar
   125    63    62    1
   126    76    74   ar
   127    76    78   ar
   128    74    77   ar
   129    54    53    2
   130    78    80   ar
   131    68    67    1
   132    68    69    1
   133    77    79   ar
   134    62    59    1
   135    59    58    1
   136    59    60    1
   137    55    56    1
   138    55    52    1
   139    80    79   ar
   140    53    58   am
   141    53    52    1
   142    70    69    2
   143    52    51    1
   144    60    61    2
