@<TRIPOS>MOLECULE
tmp/2eaeA00.pdb
 111 108 0 0 0
SMALL
GASTEIGER

@<TRIPOS>ATOM
      1  N         41.3220   45.7600   15.7390 N.3   385  LEU385     -0.1245
      2  CA        42.3920   44.9820   15.1020 C.3   385  LEU385      0.1561
      3  C         43.8030   45.3910   15.4980 C.2   385  LEU385      0.2260
      4  O         44.7120   44.5900   15.3770 O.2   385  LEU385     -0.2867
      5  CB        42.2570   45.0020   13.5670 C.3   385  LEU385      0.0270
      6  CG        41.1570   44.1880   12.8890 C.3   385  LEU385      0.0019
      7  CD1       41.2940   44.3330   11.3900 C.3   385  LEU385      0.0001
      8  CD2       41.2850   42.6950   13.2170 C.3   385  LEU385      0.0001
      9  N         42.1710   46.4030    6.6760 N.3   403  TRP403     -0.1241
     10  CA        40.9080   45.9440    7.2520 C.3   403  TRP403      0.1605
     11  C         40.2820   46.9700    8.1640 C.2   403  TRP403      0.2264
     12  O         39.5160   46.6390    9.0980 O.2   403  TRP403     -0.2867
     13  CB        41.0950   44.6070    7.9730 C.3   403  TRP403      0.0550
     14  CG        41.6970   43.5960    7.1220 C.ar  403  TRP403      0.0003
     15  CD1       41.1080   42.9490    6.0940 C.ar  403  TRP403      0.0946
     16  CD2       43.0370   43.1070    7.1990 C.ar  403  TRP403      0.0152
     17  NE1       41.9960   42.0880    5.5100 N.ar  403  TRP403     -0.2442
     18  CE2       43.1830   42.1470    6.1880 C.ar  403  TRP403      0.0810
     19  CE3       44.1180   43.3470    8.0770 C.ar  403  TRP403      0.0012
     20  CZ2       44.3810   41.4520    5.9810 C.ar  403  TRP403      0.0191
     21  CZ3       45.3010   42.6540    7.8810 C.ar  403  TRP403      0.0001
     22  CH2       45.4290   41.7160    6.8460 C.ar  403  TRP403      0.0015
     23  N         36.6500   42.7880   13.8340 N.3   408  HIS408     -0.1241
     24  CA        36.5460   41.6620   12.9060 C.3   408  HIS408      0.1621
     25  C         36.1410   40.4300   13.7000 C.2   408  HIS408      0.2264
     26  O         36.9470   39.8740   14.4700 O.2   408  HIS408     -0.2867
     27  CB        37.8820   41.4060   12.2120 C.3   408  HIS408      0.0745
     28  CG        37.8470   41.5750   10.7250 C.ar  408  HIS408      0.0817
     29  ND1       37.7730   40.5040    9.8470 N.ar  408  HIS408     -0.2268
     30  CD2       37.9330   42.6880    9.9610 C.ar  408  HIS408      0.1154
     31  CE1       37.7880   40.9600    8.6080 C.ar  408  HIS408      0.1986
     32  NE2       37.8870   42.2820    8.6490 N.ar  408  HIS408     -0.2212
     33  N         34.9820   37.3480   13.0320 N.3   410  ASN410     -0.1240
     34  CA        35.0830   35.9130   12.6800 C.3   410  ASN410      0.1653
     35  C         36.4250   35.2630   13.0670 C.2   410  ASN410      0.2266
     36  O         36.8810   34.3080   12.4280 O.2   410  ASN410     -0.2867
     37  CB        34.6840   35.6590   11.2190 C.3   410  ASN410      0.1155
     38  CG        35.7220   36.2050   10.2360 C.2   410  ASN410      0.2627
     39  OD1       36.6730   36.8850   10.6240 O.2   410  ASN410     -0.2716
     40  ND2       35.5320   35.8920    8.9350 N.am  410  ASN410     -0.0877
     41  N         39.1050   37.4550   15.0680 N.3   412  ASN412     -0.1240
     42  CA        40.0960   38.4020   15.6180 C.3   412  ASN412      0.1653
     43  C         39.6200   39.0820   16.9000 C.2   412  ASN412      0.2266
     44  O         40.3530   39.1220   17.9080 O.2   412  ASN412     -0.2867
     45  CB        40.4790   39.4620   14.5800 C.3   412  ASN412      0.1155
     46  CG        41.5560   38.9820   13.6250 C.2   412  ASN412      0.2627
     47  OD1       41.2830   38.2360   12.6710 O.2   412  ASN412     -0.2716
     48  ND2       42.7750   39.3930   13.8710 N.am  412  ASN412     -0.0877
     49  N         37.6610   31.1780    6.1080 N.3   555  GLU555     -0.1245
     50  CA        37.2620   31.9460    4.9520 C.3   555  GLU555      0.1567
     51  C         37.7630   31.1320    3.7610 C.2   555  GLU555      0.2260
     52  O         38.6240   31.5860    3.0090 O.2   555  GLU555     -0.2867
     53  CB        37.8780   33.3600    4.9710 C.3   555  GLU555      0.0388
     54  CG        37.2870   34.2780    6.0480 C.3   555  GLU555      0.1160
     55  CD        37.7120   35.7560    5.9350 C.2   555  GLU555      0.3649
     56  OE1       38.4620   36.1230    5.0020 O.co2 555  GLU555     -0.2457
     57  OE2       37.2650   36.5770    6.7650 O.co2 555  GLU555     -0.2457
     58  N         44.5240   29.4370    7.1160 N.3   666  ARG666     -0.1231
     59  CA        44.7450   30.1590    8.3770 C.3   666  ARG666      0.1694
     60  C         43.6060   29.9260    9.3940 C.2   666  ARG666      0.2592
     61  O         43.8680   29.7130   10.5900 O.2   666  ARG666     -0.2718
     62  CB        44.9640   31.6470    8.1120 C.3   666  ARG666      0.0321
     63  CG        43.8430   32.3620    7.3570 C.3   666  ARG666      0.0489
     64  CD        44.3050   33.6820    6.7560 C.3   666  ARG666      0.2205
     65  NE        43.1490   34.3420    6.1670 N.pl3 666  ARG666     -0.0865
     66  CZ        42.6390   34.0390    4.9710 C.cat 666  ARG666      0.5346
     67  NH1       43.2120   33.1190    4.2170 N.pl3 666  ARG666      0.1354
     68  NH2       41.5540   34.6570    4.5280 N.pl3 666  ARG666      0.1354
     69  N         42.3570   29.9700    8.9280 N.am  667  HIS667     -0.1976
     70  CA        41.2210   29.7050    9.8040 C.3   667  HIS667      0.1656
     71  C         41.1120   28.2160   10.0870 C.2   667  HIS667      0.2291
     72  O         41.4450   27.3600    9.2420 O.2   667  HIS667     -0.2864
     73  CB        39.8930   30.1680    9.1600 C.3   667  HIS667      0.0771
     74  CG        39.7790   31.6550    9.0570 C.ar  667  HIS667      0.0820
     75  ND1       39.1690   32.4170   10.0280 N.ar  667  HIS667     -0.2267
     76  CD2       40.2450   32.5200    8.1250 C.ar  667  HIS667      0.1154
     77  CE1       39.2520   33.6940    9.6870 C.ar  667  HIS667      0.1986
     78  NE2       39.9140   33.7780    8.5400 N.ar  667  HIS667     -0.2212
     79  N         48.0320   35.6110   14.0690 N.3   711  TRP711     -0.1241
     80  CA        46.8110   35.1960   14.7530 C.3   711  TRP711      0.1605
     81  C         46.5300   33.7060   14.5460 C.2   711  TRP711      0.2264
     82  O         46.0370   33.0350   15.4420 O.2   711  TRP711     -0.2867
     83  CB        45.5940   36.0660   14.3660 C.3   711  TRP711      0.0550
     84  CG        45.0320   35.8490   12.9320 C.ar  711  TRP711      0.0003
     85  CD1       45.2270   36.6600   11.8540 C.ar  711  TRP711      0.0946
     86  CD2       44.1920   34.7760   12.4820 C.ar  711  TRP711      0.0152
     87  NE1       44.5850   36.1560   10.7530 N.ar  711  TRP711     -0.2442
     88  CE2       43.9250   35.0030   11.1050 C.ar  711  TRP711      0.0810
     89  CE3       43.6220   33.6560   13.1060 C.ar  711  TRP711      0.0012
     90  CZ2       43.1360   34.1370   10.3410 C.ar  711  TRP711      0.0191
     91  CZ3       42.8420   32.7720   12.3460 C.ar  711  TRP711      0.0001
     92  CH2       42.6000   33.0140   10.9710 C.ar  711  TRP711      0.0015
     93  N         50.6200   39.8550   10.6390 N.3   749  HIS749     -0.1241
     94  CA        49.8980   39.0240    9.6840 C.3   749  HIS749      0.1621
     95  C         50.7110   38.5150    8.4760 C.2   749  HIS749      0.2264
     96  O         50.5830   37.3450    8.1450 O.2   749  HIS749     -0.2867
     97  CB        48.6540   39.8240    9.2310 C.3   749  HIS749      0.0745
     98  CG        47.7150   39.0830    8.3090 C.ar  749  HIS749      0.0817
     99  ND1       47.9470   38.9450    6.9540 N.ar  749  HIS749     -0.2268
    100  CD2       46.4910   38.5490    8.5340 C.ar  749  HIS749      0.1154
    101  CE1       46.9290   38.3150    6.3970 C.ar  749  HIS749      0.1986
    102  NE2       46.0310   38.0630    7.3350 N.ar  749  HIS749     -0.2212
    103  N         48.9400   43.1460   13.5250 N.3   753  GLN753     -0.1245
    104  CA        47.5510   42.8440   13.9150 C.3   753  GLN753      0.1566
    105  C         47.7060   42.3450   15.3390 C.2   753  GLN753      0.2260
    106  O         48.4810   41.4260   15.5850 O.2   753  GLN753     -0.2867
    107  CB        46.9700   41.7170   13.0470 C.3   753  GLN753      0.0367
    108  CG        46.7330   42.0800   11.5750 C.3   753  GLN753      0.0905
    109  CD        45.5690   43.0170   11.4080 C.2   753  GLN753      0.2608
    110  OE1       45.7400   44.2450   11.2730 O.2   753  GLN753     -0.2717
    111  NE2       44.3700   42.4630   11.4670 N.am  753  GLN753     -0.0878
@<TRIPOS>BOND
     1    52    51    2
     2    51    50    1
     3    67    66    1
     4    68    66    1
     5    50    53    1
     6    50    49    1
     7    53    54    1
     8    66    65    2
     9    56    55   ar
    10    17    15   ar
    11    17    18   ar
    12    55    54    1
    13    55    57   ar
    14    20    18   ar
    15    20    22   ar
    16    15    14   ar
    17    65    64    1
    18    18    16   ar
    19   101    99   ar
    20   101   102   ar
    21     9    10    1
    22    64    63    1
    23    22    21   ar
    24    99    98   ar
    25    58    59    1
    26    14    16   ar
    27    14    13    1
    28    16    19   ar
    29    10    13    1
    30    10    11    1
    31   102   100   ar
    32    63    62    1
    33    21    19   ar
    34    62    59    1
    35    76    78   ar
    36    76    74   ar
    37    96    95    2
    38    11    12    2
    39    98   100   ar
    40    98    97    1
    41    59    60    1
    42    95    94    1
    43    78    77   ar
    44    31    32   ar
    45    31    29   ar
    46    32    30   ar
    47    69    60   am
    48    69    70    1
    49    40    38   am
    50    74    73    1
    51    74    75   ar
    52    73    70    1
    53    97    94    1
    54    72    71    2
    55    60    61    2
    56    94    93    1
    57    77    75   ar
    58    70    71    1
    59    29    28   ar
    60    30    28   ar
    61    38    39    2
    62    38    37    1
    63    90    92   ar
    64    90    88   ar
    65    28    27    1
    66    87    88   ar
    67    87    85   ar
    68    92    91   ar
    69    88    86   ar
    70    37    34    1
    71   110   109    2
    72     7     6    1
    73   109   111   am
    74   109   108    1
    75   108   107    1
    76    85    84   ar
    77    27    24    1
    78    91    89   ar
    79    36    35    2
    80    86    84   ar
    81    86    89   ar
    82    47    46    2
    83    34    33    1
    84    34    35    1
    85     6     8    1
    86     6     5    1
    87    24    25    1
    88    24    23    1
    89    84    83    1
    90   107   104    1
    91   103   104    1
    92     5     2    1
    93    46    48   am
    94    46    45    1
    95    25    26    2
    96   104   105    1
    97    79    80    1
    98    83    80    1
    99    81    80    1
   100    81    82    2
   101    45    42    1
   102    41    42    1
   103     2     3    1
   104     2     1    1
   105   105   106    2
   106     4     3    2
   107    42    43    1
   108    43    44    2
