@<TRIPOS>MOLECULE
tmp/2eaeA01.pdb
 104 104 0 0 0
SMALL
GASTEIGER

@<TRIPOS>ATOM
      1  N         38.2380   49.6080    3.7000 N.3   398  HIS398     -0.1241
      2  CA        39.0080   48.8420    2.7320 C.3   398  HIS398      0.1621
      3  C         40.0190   49.7330    1.9950 C.2   398  HIS398      0.2264
      4  O         40.3130   49.5290    0.8110 O.2   398  HIS398     -0.2867
      5  CB        38.0690   48.0790    1.7920 C.3   398  HIS398      0.0745
      6  CG        37.0360   47.2670    2.5160 C.ar  398  HIS398      0.0817
      7  ND1       37.3520   46.1430    3.2530 N.ar  398  HIS398     -0.2268
      8  CD2       35.6990   47.4280    2.6330 C.ar  398  HIS398      0.1154
      9  CE1       36.2480   45.6450    3.7860 C.ar  398  HIS398      0.1986
     10  NE2       35.2320   46.4120    3.4340 N.ar  398  HIS398     -0.2212
     11  N         42.1710   46.4030    6.6760 N.3   403  TRP403     -0.1241
     12  CA        40.9080   45.9440    7.2520 C.3   403  TRP403      0.1605
     13  C         40.2820   46.9700    8.1640 C.2   403  TRP403      0.2264
     14  O         39.5160   46.6390    9.0980 O.2   403  TRP403     -0.2867
     15  CB        41.0950   44.6070    7.9730 C.3   403  TRP403      0.0550
     16  CG        41.6970   43.5960    7.1220 C.ar  403  TRP403      0.0003
     17  CD1       41.1080   42.9490    6.0940 C.ar  403  TRP403      0.0946
     18  CD2       43.0370   43.1070    7.1990 C.ar  403  TRP403      0.0152
     19  NE1       41.9960   42.0880    5.5100 N.ar  403  TRP403     -0.2442
     20  CE2       43.1830   42.1470    6.1880 C.ar  403  TRP403      0.0810
     21  CE3       44.1180   43.3470    8.0770 C.ar  403  TRP403      0.0012
     22  CZ2       44.3810   41.4520    5.9810 C.ar  403  TRP403      0.0191
     23  CZ3       45.3010   42.6540    7.8810 C.ar  403  TRP403      0.0001
     24  CH2       45.4290   41.7160    6.8460 C.ar  403  TRP403      0.0015
     25  N         36.6500   42.7880   13.8340 N.3   408  HIS408     -0.1241
     26  CA        36.5460   41.6620   12.9060 C.3   408  HIS408      0.1621
     27  C         36.1410   40.4300   13.7000 C.2   408  HIS408      0.2264
     28  O         36.9470   39.8740   14.4700 O.2   408  HIS408     -0.2867
     29  CB        37.8820   41.4060   12.2120 C.3   408  HIS408      0.0745
     30  CG        37.8470   41.5750   10.7250 C.ar  408  HIS408      0.0817
     31  ND1       37.7730   40.5040    9.8470 N.ar  408  HIS408     -0.2268
     32  CD2       37.9330   42.6880    9.9610 C.ar  408  HIS408      0.1154
     33  CE1       37.7880   40.9600    8.6080 C.ar  408  HIS408      0.1986
     34  NE2       37.8870   42.2820    8.6490 N.ar  408  HIS408     -0.2212
     35  N         30.8350   39.4720    9.9490 N.3   473  THR473     -0.1203
     36  CA        32.2980   39.5960   10.1660 C.3   473  THR473      0.1994
     37  C         32.7860   41.0260   10.4560 C.2   473  THR473      0.2617
     38  O         33.4100   41.3090   11.4900 O.2   473  THR473     -0.2717
     39  CB        33.0500   39.0770    8.9310 C.3   473  THR473      0.1784
     40  OG1       32.7440   37.6890    8.7400 O.3   473  THR473     -0.2211
     41  CG2       34.5300   39.2270    9.1040 C.3   473  THR473      0.0376
     42  N         32.5580   41.9160    9.5070 N.am  474  GLU474     -0.1979
     43  CA        33.1380   43.2440    9.5990 C.3   474  GLU474      0.1602
     44  C         32.2040   44.1700   10.3690 C.2   474  GLU474      0.2287
     45  O         31.0530   44.3980    9.9670 O.2   474  GLU474     -0.2864
     46  CB        33.3990   43.8200    8.2100 C.3   474  GLU474      0.0415
     47  CG        34.4160   43.0360    7.3580 C.3   474  GLU474      0.1163
     48  CD        34.8480   43.8740    6.1530 C.2   474  GLU474      0.3649
     49  OE1       33.9920   44.6340    5.6620 O.co2 474  GLU474     -0.2457
     50  OE2       36.0290   43.7970    5.7370 O.co2 474  GLU474     -0.2457
     51  N         33.2880   36.0390    2.7840 N.3   489  TRP489     -0.1241
     52  CA        33.8770   36.5860    4.0330 C.3   489  TRP489      0.1605
     53  C         32.8030   37.4110    4.7080 C.2   489  TRP489      0.2264
     54  O         32.7610   37.4650    5.9420 O.2   489  TRP489     -0.2867
     55  CB        35.1360   37.4430    3.8580 C.3   489  TRP489      0.0550
     56  CG        35.0130   38.5670    2.8760 C.ar  489  TRP489      0.0003
     57  CD1       35.4490   38.5680    1.5660 C.ar  489  TRP489      0.0946
     58  CD2       34.4500   39.8540    3.1200 C.ar  489  TRP489      0.0152
     59  NE1       35.1650   39.7740    0.9790 N.ar  489  TRP489     -0.2442
     60  CE2       34.5590   40.5890    1.9130 C.ar  489  TRP489      0.0810
     61  CE3       33.8780   40.4790    4.2540 C.ar  489  TRP489      0.0012
     62  CZ2       34.0810   41.9050    1.7910 C.ar  489  TRP489      0.0191
     63  CZ3       33.3990   41.7800    4.1360 C.ar  489  TRP489      0.0001
     64  CH2       33.5060   42.4860    2.9020 C.ar  489  TRP489      0.0015
     65  N         37.6610   31.1780    6.1080 N.3   555  GLU555     -0.1245
     66  CA        37.2620   31.9460    4.9520 C.3   555  GLU555      0.1567
     67  C         37.7630   31.1320    3.7610 C.2   555  GLU555      0.2260
     68  O         38.6240   31.5860    3.0090 O.2   555  GLU555     -0.2867
     69  CB        37.8780   33.3600    4.9710 C.3   555  GLU555      0.0388
     70  CG        37.2870   34.2780    6.0480 C.3   555  GLU555      0.1160
     71  CD        37.7120   35.7560    5.9350 C.2   555  GLU555      0.3649
     72  OE1       38.4620   36.1230    5.0020 O.co2 555  GLU555     -0.2457
     73  OE2       37.2650   36.5770    6.7650 O.co2 555  GLU555     -0.2457
     74  N         44.5240   29.4370    7.1160 N.3   666  ARG666     -0.1231
     75  CA        44.7450   30.1590    8.3770 C.3   666  ARG666      0.1694
     76  C         43.6060   29.9260    9.3940 C.2   666  ARG666      0.2592
     77  O         43.8680   29.7130   10.5900 O.2   666  ARG666     -0.2718
     78  CB        44.9640   31.6470    8.1120 C.3   666  ARG666      0.0321
     79  CG        43.8430   32.3620    7.3570 C.3   666  ARG666      0.0489
     80  CD        44.3050   33.6820    6.7560 C.3   666  ARG666      0.2205
     81  NE        43.1490   34.3420    6.1670 N.pl3 666  ARG666     -0.0865
     82  CZ        42.6390   34.0390    4.9710 C.cat 666  ARG666      0.5346
     83  NH1       43.2120   33.1190    4.2170 N.pl3 666  ARG666      0.1354
     84  NH2       41.5540   34.6570    4.5280 N.pl3 666  ARG666      0.1354
     85  N         42.3570   29.9700    8.9280 N.am  667  HIS667     -0.1976
     86  CA        41.2210   29.7050    9.8040 C.3   667  HIS667      0.1656
     87  C         41.1120   28.2160   10.0870 C.2   667  HIS667      0.2291
     88  O         41.4450   27.3600    9.2420 O.2   667  HIS667     -0.2864
     89  CB        39.8930   30.1680    9.1600 C.3   667  HIS667      0.0771
     90  CG        39.7790   31.6550    9.0570 C.ar  667  HIS667      0.0820
     91  ND1       39.1690   32.4170   10.0280 N.ar  667  HIS667     -0.2267
     92  CD2       40.2450   32.5200    8.1250 C.ar  667  HIS667      0.1154
     93  CE1       39.2520   33.6940    9.6870 C.ar  667  HIS667      0.1986
     94  NE2       39.9140   33.7780    8.5400 N.ar  667  HIS667     -0.2212
     95  N         50.6200   39.8550   10.6390 N.3   749  HIS749     -0.1241
     96  CA        49.8980   39.0240    9.6840 C.3   749  HIS749      0.1621
     97  C         50.7110   38.5150    8.4760 C.2   749  HIS749      0.2264
     98  O         50.5830   37.3450    8.1450 O.2   749  HIS749     -0.2867
     99  CB        48.6540   39.8240    9.2310 C.3   749  HIS749      0.0745
    100  CG        47.7150   39.0830    8.3090 C.ar  749  HIS749      0.0817
    101  ND1       47.9470   38.9450    6.9540 N.ar  749  HIS749     -0.2268
    102  CD2       46.4910   38.5490    8.5340 C.ar  749  HIS749      0.1154
    103  CE1       46.9290   38.3150    6.3970 C.ar  749  HIS749      0.1986
    104  NE2       46.0310   38.0630    7.3350 N.ar  749  HIS749     -0.2212
@<TRIPOS>BOND
     1     4     3    2
     2    59    57   ar
     3    59    60   ar
     4    57    56   ar
     5    62    60   ar
     6    62    64   ar
     7     5     6    1
     8     5     2    1
     9    60    58   ar
    10     3     2    1
    11     6     8   ar
    12     6     7   ar
    13     8    10   ar
    14     2     1    1
    15    51    52    1
    16    56    58   ar
    17    56    55    1
    18    64    63   ar
    19    68    67    2
    20    58    61   ar
    21     7     9   ar
    22    10     9   ar
    23    67    66    1
    24    55    52    1
    25    52    53    1
    26    63    61   ar
    27    83    82    1
    28    84    82    1
    29    53    54    2
    30    66    69    1
    31    66    65    1
    32    82    81    2
    33    69    70    1
    34    72    71   ar
    35    19    17   ar
    36    19    20   ar
    37    49    48   ar
    38    50    48   ar
    39    71    70    1
    40    71    73   ar
    41    22    20   ar
    42    22    24   ar
    43    17    16   ar
    44    48    47    1
    45    81    80    1
    46    20    18   ar
    47   103   101   ar
    48   103   104   ar
    49    11    12    1
    50    80    79    1
    51    24    23   ar
    52   101   100   ar
    53    74    75    1
    54    16    18   ar
    55    16    15    1
    56    18    21   ar
    57    12    15    1
    58    12    13    1
    59   104   102   ar
    60    79    78    1
    61    47    46    1
    62    23    21   ar
    63    78    75    1
    64    92    94   ar
    65    92    90   ar
    66    98    97    2
    67    13    14    2
    68    46    43    1
    69   100   102   ar
    70   100    99    1
    71    75    76    1
    72    97    96    1
    73    94    93   ar
    74    33    34   ar
    75    33    31   ar
    76    34    32   ar
    77    40    39    1
    78    85    76   am
    79    85    86    1
    80    39    41    1
    81    39    36    1
    82    90    89    1
    83    90    91   ar
    84    89    86    1
    85    99    96    1
    86    88    87    2
    87    76    77    2
    88    42    43    1
    89    42    37   am
    90    43    44    1
    91    96    95    1
    92    93    91   ar
    93    86    87    1
    94    31    30   ar
    95    35    36    1
    96    32    30   ar
    97    45    44    2
    98    36    37    1
    99    37    38    2
   100    30    29    1
   101    29    26    1
   102    26    27    1
   103    26    25    1
   104    27    28    2
