@<TRIPOS>MOLECULE
tmp/2eakA01.pdb
 79 72 0 0 0
SMALL
GASTEIGER

@<TRIPOS>ATOM
      1  N         10.6610   66.5330   42.1960 N.3    25  GLN25      -0.1245
      2  CA        10.4190   65.0980   42.2130 C.3    25  GLN25       0.1566
      3  C         10.0600   64.6170   40.8230 C.2    25  GLN25       0.2260
      4  O          9.1020   65.1430   40.2050 O.2    25  GLN25      -0.2867
      5  CB         9.2580   64.7540   43.1720 C.3    25  GLN25       0.0367
      6  CG         9.5770   64.9970   44.6150 C.3    25  GLN25       0.0905
      7  CD         8.3790   64.7750   45.5350 C.2    25  GLN25       0.2608
      8  OE1        7.4800   63.9770   45.2400 O.2    25  GLN25      -0.2717
      9  NE2        8.3920   65.4450   46.6760 N.am   25  GLN25      -0.0878
     10  N          8.8820   61.5340   38.5090 N.3    27  THR27      -0.1218
     11  CA         8.3130   60.1930   38.5440 C.3    27  THR27       0.1862
     12  C          8.4170   59.5490   37.1960 C.2    27  THR27       0.2287
     13  O          8.0730   60.1300   36.1890 O.2    27  THR27      -0.2866
     14  CB         6.8310   60.2180   39.0040 C.3    27  THR27       0.1770
     15  OG1        6.7830   60.6750   40.3500 O.3    27  THR27      -0.2211
     16  CG2        6.2100   58.8060   38.9300 C.3    27  THR27       0.0375
     17  N          6.4810   52.3020   40.0660 N.3    95  ASP95      -0.1239
     18  CA         6.5020   53.7280   40.1940 C.3    95  ASP95       0.1674
     19  C          7.8650   54.1110   40.7790 C.2    95  ASP95       0.2266
     20  O          8.1570   53.9070   41.9630 O.2    95  ASP95      -0.2867
     21  CB         5.3570   54.2050   41.0670 C.3    95  ASP95       0.1410
     22  CG         5.2650   55.7140   41.1250 C.2    95  ASP95       0.3668
     23  OD1        4.4760   56.3110   40.3440 O.co2  95  ASP95      -0.2456
     24  OD2        5.9710   56.3050   41.9620 O.co2  95  ASP95      -0.2456
     25  N         10.5140   57.0200   41.6920 N.3    97  CYS97      -0.1221
     26  CA        10.5160   58.4460   41.9820 C.3    97  CYS97       0.1808
     27  C         11.8890   58.9550   42.4340 C.2    97  CYS97       0.2601
     28  O         12.5100   58.3870   43.3330 O.2    97  CYS97      -0.2717
     29  CB         9.4390   58.7820   43.0340 C.3    97  CYS97       0.0970
     30  SG         9.0470   60.5740   43.2240 S.3    97  CYS97      -0.0800
     31  N         12.3350   60.0300   41.7870 N.am   98  PHE98      -0.1962
     32  CA        13.6210   60.6470   42.0800 C.3    98  PHE98       0.1771
     33  C         13.3370   61.9610   42.7560 C.2    98  PHE98       0.2619
     34  O         12.6270   62.7970   42.2110 O.2    98  PHE98      -0.2715
     35  CB        14.4180   60.8740   40.7760 C.3    98  PHE98       0.0574
     36  CG        14.7200   59.6080   40.0290 C.ar   98  PHE98      -0.0200
     37  CD1       15.9010   58.8890   40.3000 C.ar   98  PHE98      -0.0042
     38  CD2       13.8270   59.1220   39.0630 C.ar   98  PHE98      -0.0042
     39  CE1       16.1910   57.7010   39.6170 C.ar   98  PHE98      -0.0003
     40  CE2       14.1000   57.9520   38.3940 C.ar   98  PHE98      -0.0003
     41  CZ        15.2930   57.2470   38.6490 C.ar   98  PHE98      -0.0000
     42  N         13.8730   62.1320   43.9630 N.am   99  LEU99      -0.1977
     43  CA        13.8260   63.4090   44.6570 C.3    99  LEU99       0.1596
     44  C         15.2180   64.0580   44.6360 C.2    99  LEU99       0.2287
     45  O         16.1960   63.4580   45.0430 O.2    99  LEU99      -0.2864
     46  CB        13.3200   63.2520   46.1230 C.3    99  LEU99       0.0297
     47  CG        13.5420   64.4600   47.0380 C.3    99  LEU99       0.0022
     48  CD1       12.6550   65.6980   46.6620 C.3    99  LEU99       0.0001
     49  CD2       13.3740   64.1260   48.5270 C.3    99  LEU99       0.0001
     50  N         17.4750   60.9780   46.0450 N.3   106  LYS106     -0.1245
     51  CA        16.8450   59.9430   46.8460 C.3   106  LYS106      0.1561
     52  C         15.8710   59.2190   45.9360 C.2   106  LYS106      0.2260
     53  O         14.9730   59.8400   45.3630 O.2   106  LYS106     -0.2867
     54  CB        16.1390   60.5940   48.0140 C.3   106  LYS106      0.0271
     55  CG        15.7180   59.6290   49.1160 C.3   106  LYS106      0.0035
     56  CD        15.0440   60.4380   50.2200 C.3   106  LYS106      0.0206
     57  CE        14.9510   59.6620   51.5230 C.3   106  LYS106      0.1093
     58  NZ        14.6990   60.5620   52.6860 N.3   106  LYS106     -0.1314
     59  N         13.0530   56.3590   45.3320 N.3   108  MET108     -0.1245
     60  CA        11.9970   55.5210   45.8630 C.3   108  MET108      0.1570
     61  C         11.4060   54.6940   44.7370 C.2   108  MET108      0.2261
     62  O         11.2140   55.1890   43.6260 O.2   108  MET108     -0.2867
     63  CB        10.9370   56.3910   46.5100 C.3   108  MET108      0.0387
     64  CG        11.5140   57.2670   47.6460 C.3   108  MET108      0.0595
     65  SD        10.4280   57.3340   49.0540 S.3   108  MET108     -0.1393
     66  CE         8.8030   57.3350   48.3260 C.3   108  MET108      0.0692
     67  N          7.0360   53.4560   46.3780 N.3   111  GLY111     -0.1225
     68  CA         6.7800   54.1880   47.6140 C.3   111  GLY111      0.1811
     69  C          7.7540   53.8690   48.7190 C.2   111  GLY111      0.2280
     70  O          7.5900   54.3540   49.8410 O.2   111  GLY111     -0.2866
     71  N          6.8880   66.9360   40.0260 N.3   143  GLN143     -0.1245
     72  CA         6.3100   67.7770   41.0560 C.3   143  GLN143      0.1566
     73  C          7.3900   68.6910   41.6460 C.2   143  GLN143      0.2260
     74  O          7.2520   69.9170   41.6990 O.2   143  GLN143     -0.2867
     75  CB         5.6760   66.9040   42.1180 C.3   143  GLN143      0.0367
     76  CG         4.9610   67.6800   43.1770 C.3   143  GLN143      0.0905
     77  CD         4.8710   66.8900   44.4390 C.2   143  GLN143      0.2608
     78  OE1        4.1150   65.9170   44.5120 O.2   143  GLN143     -0.2717
     79  NE2        5.6630   67.2750   45.4430 N.am  143  GLN143     -0.0878
@<TRIPOS>BOND
     1    13    12    2
     2    12    11    1
     3    40    41   ar
     4    40    38   ar
     5    10    11    1
     6    11    14    1
     7    41    39   ar
     8    16    14    1
     9    14    15    1
    10    38    36   ar
    11    39    37   ar
    12    71    72    1
    13    36    37   ar
    14    36    35    1
    15    17    18    1
    16    18    19    1
    17    18    21    1
    18     4     3    2
    19    23    22   ar
    20    35    32    1
    21    19    20    2
    22     3     2    1
    23    72    73    1
    24    72    75    1
    25    21    22    1
    26    22    24   ar
    27    73    74    2
    28    25    26    1
    29    31    32    1
    30    31    27   am
    31    26    27    1
    32    26    29    1
    33    32    33    1
    34    75    76    1
    35     1     2    1
    36    34    33    2
    37     2     5    1
    38    27    28    2
    39    33    42   am
    40    29    30    1
    41     5     6    1
    42    76    77    1
    43    62    61    2
    44    42    43    1
    45    77    78    2
    46    77    79   am
    47     6     7    1
    48    44    43    1
    49    44    45    2
    50    43    46    1
    51    61    60    1
    52     8     7    2
    53    59    60    1
    54    53    52    2
    55     7     9   am
    56    60    63    1
    57    52    51    1
    58    50    51    1
    59    46    47    1
    60    67    68    1
    61    63    64    1
    62    48    47    1
    63    51    54    1
    64    47    49    1
    65    68    69    1
    66    64    65    1
    67    54    55    1
    68    66    65    1
    69    69    70    2
    70    55    56    1
    71    56    57    1
    72    57    58    1
