@<TRIPOS>MOLECULE
tmp/2ealA00.pdb
 136 128 0 0 0
SMALL
GASTEIGER

@<TRIPOS>ATOM
      1  N         19.7790   22.0340   27.0390 N.3    38  ARG38      -0.1231
      2  CA        19.5940   23.2170   26.1830 C.3    38  ARG38       0.1694
      3  C         19.9420   24.4970   26.9340 C.2    38  ARG38       0.2592
      4  O         19.7180   24.5930   28.1460 O.2    38  ARG38      -0.2718
      5  CB        18.1270   23.3520   25.7550 C.3    38  ARG38       0.0321
      6  CG        17.5560   22.1920   25.0040 C.3    38  ARG38       0.0489
      7  CD        16.1830   22.5130   24.4380 C.3    38  ARG38       0.2205
      8  NE        15.6260   21.3470   23.7440 N.pl3  38  ARG38      -0.0865
      9  CZ        14.4810   21.3330   23.0430 C.cat  38  ARG38       0.5346
     10  NH1       13.7170   22.4250   22.9140 N.pl3  38  ARG38       0.1354
     11  NH2       14.0880   20.1970   22.4630 N.pl3  38  ARG38       0.1354
     12  N         20.4880   25.4780   26.2120 N.am   39  PHE39      -0.1962
     13  CA        20.4540   26.8750   26.6620 C.3    39  PHE39       0.1771
     14  C         20.1150   27.8410   25.5400 C.2    39  PHE39       0.2619
     15  O         20.0550   27.4460   24.3830 O.2    39  PHE39      -0.2715
     16  CB        21.7320   27.2940   27.3810 C.3    39  PHE39       0.0574
     17  CG        22.9450   27.4140   26.5060 C.ar   39  PHE39      -0.0200
     18  CD1       23.4120   28.6680   26.1060 C.ar   39  PHE39      -0.0042
     19  CD2       23.6840   26.2840   26.1620 C.ar   39  PHE39      -0.0042
     20  CE1       24.5810   28.7750   25.3320 C.ar   39  PHE39      -0.0003
     21  CE2       24.8450   26.3940   25.4050 C.ar   39  PHE39      -0.0003
     22  CZ        25.2890   27.6350   25.0010 C.ar   39  PHE39      -0.0000
     23  N         19.8640   29.1080   25.8800 N.am   40  ALA40      -0.1977
     24  CA        19.6520   30.0990   24.8450 C.3    40  ALA40       0.1597
     25  C         20.2310   31.4390   25.2490 C.2    40  ALA40       0.2287
     26  O         20.3360   31.7770   26.4470 O.2    40  ALA40      -0.2864
     27  CB        18.1600   30.2400   24.4960 C.3    40  ALA40       0.0319
     28  N         19.2200   35.2480   24.0640 N.3    42  ASN42      -0.1240
     29  CA        18.1560   35.9920   23.3950 C.3    42  ASN42       0.1653
     30  C         18.5180   37.4790   23.2240 C.2    42  ASN42       0.2266
     31  O         18.9180   38.1390   24.1870 O.2    42  ASN42      -0.2867
     32  CB        16.8460   35.8600   24.2040 C.3    42  ASN42       0.1155
     33  CG        16.2160   34.4830   24.0770 C.2    42  ASN42       0.2627
     34  OD1       16.4320   33.7990   23.0980 O.2    42  ASN42      -0.2716
     35  ND2       15.4110   34.0750   25.0820 N.am   42  ASN42      -0.0877
     36  N         16.9480   34.4570   18.8170 N.3    55  HIS55      -0.1241
     37  CA        17.0600   33.3580   19.7960 C.3    55  HIS55       0.1621
     38  C         18.1200   32.4050   19.2630 C.2    55  HIS55       0.2264
     39  O         17.9650   31.8470   18.1720 O.2    55  HIS55      -0.2867
     40  CB        15.6560   32.7000   19.8820 C.3    55  HIS55       0.0745
     41  CG        15.5510   31.4410   20.7070 C.ar   55  HIS55       0.0817
     42  ND1       15.6710   31.4160   22.0830 N.ar   55  HIS55      -0.2268
     43  CD2       15.1980   30.1790   20.3400 C.ar   55  HIS55       0.1154
     44  CE1       15.4310   30.1860   22.5230 C.ar   55  HIS55       0.1986
     45  NE2       15.1460   29.4170   21.4850 N.ar   55  HIS55      -0.2212
     46  N         20.0780   29.0410   20.2020 N.3    57  ASN57      -0.1240
     47  CA        19.6010   27.9880   21.1300 C.3    57  ASN57       0.1653
     48  C         20.3040   26.6400   20.9420 C.2    57  ASN57       0.2266
     49  O         19.7710   25.7770   20.2530 O.2    57  ASN57      -0.2867
     50  CB        18.0880   27.8710   20.9110 C.3    57  ASN57       0.1155
     51  CG        17.4270   26.7770   21.7090 C.2    57  ASN57       0.2627
     52  OD1       17.7520   26.5020   22.8850 O.2    57  ASN57      -0.2716
     53  ND2       16.4360   26.1840   21.0950 N.am   57  ASN57      -0.0877
     54  N         21.3490   22.9110   21.4920 N.3    59  ARG59      -0.1245
     55  CA        20.6550   21.7260   22.0440 C.3    59  ARG59       0.1563
     56  C         21.5990   20.5140   22.0010 C.2    59  ARG59       0.2260
     57  O         22.0210   20.0800   20.9310 O.2    59  ARG59      -0.2867
     58  CB        19.3860   21.4730   21.2340 C.3    59  ARG59       0.0307
     59  CG        18.4000   22.6420   21.2800 C.3    59  ARG59       0.0489
     60  CD        17.1520   22.3500   20.4700 C.3    59  ARG59       0.2205
     61  NE        16.2160   23.4580   20.5270 N.pl3  59  ARG59      -0.0865
     62  CZ        14.9600   23.4110   20.0770 C.cat  59  ARG59       0.5346
     63  NH1       14.4870   22.3070   19.5090 N.pl3  59  ARG59       0.1354
     64  NH2       14.1700   24.4700   20.1920 N.pl3  59  ARG59       0.1354
     65  N         19.4880   25.7340   17.2570 N.3    67  VAL67      -0.1245
     66  CA        18.3360   26.3790   16.6460 C.3    67  VAL67       0.1561
     67  C         18.5500   27.9000   16.6720 C.2    67  VAL67       0.2260
     68  O         18.9790   28.4610   17.6890 O.2    67  VAL67      -0.2867
     69  CB        17.0390   26.0330   17.3880 C.3    67  VAL67       0.0252
     70  CG1       15.8730   26.9620   16.9850 C.3    67  VAL67       0.0019
     71  CG2       16.6640   24.6000   17.1100 C.3    67  VAL67       0.0019
     72  N         16.1400   31.2910   15.8200 N.3    69  ASN69      -0.1240
     73  CA        14.7580   31.6690   15.5610 C.3    69  ASN69       0.1653
     74  C         14.4550   33.0960   16.0210 C.2    69  ASN69       0.2266
     75  O         15.3060   33.7690   16.6230 O.2    69  ASN69      -0.2867
     76  CB        13.8090   30.6400   16.1970 C.3    69  ASN69       0.1155
     77  CG        12.4590   30.5230   15.4630 C.2    69  ASN69       0.2627
     78  OD1       12.1830   31.2530   14.5140 O.2    69  ASN69      -0.2716
     79  ND2       11.6130   29.5820   15.9200 N.am   69  ASN69      -0.0877
     80  N         11.0810   35.4560   17.7210 N.3    71  ARG71      -0.1245
     81  CA         9.7710   35.3790   18.3310 C.3    71  ARG71       0.1563
     82  C          9.1150   36.7610   18.2130 C.2    71  ARG71       0.2260
     83  O          9.7430   37.7910   18.4840 O.2    71  ARG71      -0.2867
     84  CB         9.9060   34.9510   19.8000 C.3    71  ARG71       0.0307
     85  CG         8.5930   34.4960   20.4630 C.3    71  ARG71       0.0489
     86  CD         8.7930   34.2570   21.9400 C.3    71  ARG71       0.2205
     87  NE         7.7410   33.4110   22.5110 N.pl3  71  ARG71      -0.0865
     88  CZ         7.8070   32.8980   23.7450 C.cat  71  ARG71       0.5346
     89  NH1        8.8580   33.1350   24.5360 N.pl3  71  ARG71       0.1354
     90  NH2        6.8280   32.1420   24.1910 N.pl3  71  ARG71       0.1354
     91  N          6.7300   31.8860   18.0010 N.3    76  TRP76      -0.1241
     92  CA         7.9960   31.4970   17.3970 C.3    76  TRP76       0.1605
     93  C          7.8100   31.3590   15.8850 C.2    76  TRP76       0.2264
     94  O          6.8140   30.7720   15.4030 O.2    76  TRP76      -0.2867
     95  CB         8.4940   30.1640   17.9580 C.3    76  TRP76       0.0550
     96  CG         8.9910   30.2170   19.3840 C.ar   76  TRP76       0.0003
     97  CD1        8.4030   29.6620   20.4860 C.ar   76  TRP76       0.0946
     98  CD2       10.1930   30.8490   19.8390 C.ar   76  TRP76       0.0152
     99  NE1        9.1660   29.9150   21.6090 N.ar   76  TRP76      -0.2442
    100  CE2       10.2670   30.6490   21.2410 C.ar   76  TRP76       0.0810
    101  CE3       11.1980   31.5880   19.2000 C.ar   76  TRP76       0.0012
    102  CZ2       11.3230   31.1410   22.0180 C.ar   76  TRP76       0.0191
    103  CZ3       12.2570   32.0720   19.9680 C.ar   76  TRP76       0.0001
    104  CH2       12.3020   31.8440   21.3690 C.ar   76  TRP76       0.0015
    105  N         12.1550   27.7820   12.3880 N.3    79  GLU79      -0.1245
    106  CA        13.5310   27.6360   12.8740 C.3    79  GLU79       0.1567
    107  C         14.4920   27.5260   11.7220 C.2    79  GLU79       0.2260
    108  O         14.1380   27.0330   10.6500 O.2    79  GLU79      -0.2867
    109  CB        13.6770   26.3890   13.7680 C.3    79  GLU79       0.0388
    110  CG        12.7530   26.3840   15.0010 C.3    79  GLU79       0.1160
    111  CD        12.8960   25.1330   15.8930 C.2    79  GLU79       0.3649
    112  OE1       13.3160   24.0570   15.3840 O.co2  79  GLU79      -0.2457
    113  OE2       12.5610   25.2430   17.1040 O.co2  79  GLU79      -0.2457
    114  N         18.0260   25.5190   11.5280 N.3    81  ARG81      -0.1245
    115  CA        18.8350   24.6050   12.3400 C.3    81  ARG81       0.1563
    116  C         20.2020   24.3680   11.7530 C.2    81  ARG81       0.2260
    117  O         20.3380   24.1370   10.5450 O.2    81  ARG81      -0.2867
    118  CB        18.1270   23.2690   12.5570 C.3    81  ARG81       0.0307
    119  CG        16.9190   23.3600   13.4800 C.3    81  ARG81       0.0489
    120  CD        16.2700   21.9780   13.6930 C.3    81  ARG81       0.2205
    121  NE        15.1260   22.0580   14.6180 N.pl3  81  ARG81      -0.0865
    122  CZ        14.6050   21.0220   15.2790 C.cat  81  ARG81       0.5346
    123  NH1       15.0940   19.7980   15.1050 N.pl3  81  ARG81       0.1354
    124  NH2       13.5850   21.2130   16.1120 N.pl3  81  ARG81       0.1354
    125  N         19.3790   31.8660   29.3470 N.3   131  ASN131     -0.1225
    126  CA        18.7710   30.8930   30.2530 C.3   131  ASN131      0.1785
    127  C         19.1360   29.4720   29.8650 C.2   131  ASN131      0.2597
    128  O         19.6760   29.2450   28.7880 O.2   131  ASN131     -0.2718
    129  CB        17.2400   31.0550   30.2750 C.3   131  ASN131      0.1169
    130  CG        16.5760   30.6140   28.9800 C.2   131  ASN131      0.2627
    131  OD1       16.1980   31.4450   28.1400 O.2   131  ASN131     -0.2716
    132  ND2       16.4050   29.3140   28.8200 N.am  131  ASN131     -0.0877
    133  N         18.8270   28.5360   30.7520 N.am  132  GLY132     -0.1957
    134  CA        19.0880   27.1160   30.5270 C.3   132  GLY132      0.1869
    135  C         20.3700   26.6000   31.1600 C.2   132  GLY132      0.2309
    136  O         20.8060   27.0710   32.2340 O.2   132  GLY132     -0.2863
@<TRIPOS>BOND
     1   117   116    2
     2   108   107    2
     3   114   115    1
     4   107   106    1
     5   116   115    1
     6   115   118    1
     7   105   106    1
     8   118   119    1
     9   106   109    1
    10   119   120    1
    11   120   121    1
    12   109   110    1
    13    78    77    2
    14   121   122    2
    15   110   111    1
    16   123   122    1
    17   122   124    1
    18   112   111   ar
    19    94    93    2
    20    77    79   am
    21    77    76    1
    22    73    72    1
    23    73    74    1
    24    73    76    1
    25    93    92    1
    26   111   113   ar
    27    74    75    2
    28    66    67    1
    29    66    65    1
    30    66    69    1
    31    67    68    2
    32    70    69    1
    33    71    69    1
    34    92    95    1
    35    92    91    1
    36    80    81    1
    37    95    96    1
    38    39    38    2
    39    82    81    1
    40    82    83    2
    41    81    84    1
    42    36    37    1
    43   101    98   ar
    44   101   103   ar
    45    38    37    1
    46    96    98   ar
    47    96    97   ar
    48    63    62    1
    49    37    40    1
    50    84    85    1
    51    98   100   ar
    52    40    41    1
    53   103   104   ar
    54    62    64    1
    55    62    61    2
    56    46    47    1
    57    49    48    2
    58    43    41   ar
    59    43    45   ar
    60    85    86    1
    61    60    61    1
    62    60    59    1
    63    97    99   ar
    64    41    42   ar
    65    50    47    1
    66    50    51    1
    67    57    56    2
    68    48    47    1
    69    53    51   am
    70    58    59    1
    71    58    55    1
    72   100    99   ar
    73   100   102   ar
    74   104   102   ar
    75    45    44   ar
    76    54    55    1
    77    51    52    2
    78    86    87    1
    79    56    55    1
    80    42    44   ar
    81    11     9    1
    82    87    88    2
    83    10     9    1
    84     9     8    2
    85    34    33    2
    86    30    29    1
    87    30    31    2
    88    29    28    1
    89    29    32    1
    90     8     7    1
    91    88    90    1
    92    88    89    1
    93    33    32    1
    94    33    35   am
    95    15    14    2
    96     7     6    1
    97    27    24    1
    98    24    25    1
    99    24    23    1
   100    22    20   ar
   101    22    21   ar
   102     6     5    1
   103    25    26    2
   104    20    18   ar
   105    21    19   ar
   106    14    23   am
   107    14    13    1
   108     5     2    1
   109    18    17   ar
   110    19    17   ar
   111     2     3    1
   112     2     1    1
   113    12    13    1
   114    12     3   am
   115    17    16    1
   116    13    16    1
   117     3     4    2
   118   131   130    2
   119   128   127    2
   120   132   130   am
   121   130   129    1
   122   125   126    1
   123   127   126    1
   124   127   133   am
   125   126   129    1
   126   134   133    1
   127   134   135    1
   128   135   136    2
