@<TRIPOS>MOLECULE
tmp/2eatA01.pdb
 154 147 0 0 0
SMALL
GASTEIGER

@<TRIPOS>ATOM
      1  N         31.4900  -21.8800   17.6130 N.3    56  GLN56      -0.1231
      2  CA        30.6450  -20.8590   16.9820 C.3    56  GLN56       0.1698
      3  C         30.0410  -21.3670   15.6730 C.2    56  GLN56       0.2592
      4  O         28.8980  -21.0390   15.3440 O.2    56  GLN56      -0.2718
      5  CB        31.4350  -19.5620   16.7560 C.3    56  GLN56       0.0381
      6  CG        30.5870  -18.3460   16.3790 C.3    56  GLN56       0.0905
      7  CD        29.5840  -17.9480   17.4540 C.2    56  GLN56       0.2608
      8  OE1       28.3780  -17.8800   17.2070 O.2    56  GLN56      -0.2717
      9  NE2       30.0820  -17.6880   18.6560 N.am   56  GLN56      -0.0878
     10  N         30.8130  -22.1840   14.9550 N.am   57  PHE57      -0.1976
     11  CA        30.3840  -22.7830   13.6910 C.3    57  PHE57       0.1639
     12  C         29.5630  -24.0620   13.8780 C.2    57  PHE57       0.2290
     13  O         28.9830  -24.5750   12.9200 O.2    57  PHE57      -0.2864
     14  CB        31.5950  -23.0790   12.7910 C.3    57  PHE57       0.0560
     15  CG        32.1770  -21.8610   12.1120 C.ar   57  PHE57      -0.0200
     16  CD1       31.3680  -20.9970   11.3710 C.ar   57  PHE57      -0.0042
     17  CD2       33.5440  -21.5960   12.1860 C.ar   57  PHE57      -0.0042
     18  CE1       31.9060  -19.8730   10.7340 C.ar   57  PHE57      -0.0003
     19  CE2       34.0950  -20.4750   11.5480 C.ar   57  PHE57      -0.0003
     20  CZ        33.2730  -19.6130   10.8220 C.ar   57  PHE57      -0.0000
     21  N         26.7960  -24.5170   15.2880 N.3    59  ASP59      -0.1239
     22  CA        25.3500  -24.2780   15.2710 C.3    59  ASP59       0.1674
     23  C         24.7120  -24.6460   13.9250 C.2    59  ASP59       0.2266
     24  O         25.3750  -24.6220   12.8860 O.2    59  ASP59      -0.2867
     25  CB        25.0400  -22.8200   15.6420 C.3    59  ASP59       0.1410
     26  CG        23.6780  -22.6520   16.3280 C.2    59  ASP59       0.3668
     27  OD1       23.0320  -23.6630   16.7000 O.co2  59  ASP59      -0.2456
     28  OD2       23.2550  -21.4900   16.5050 O.co2  59  ASP59      -0.2456
     29  N         21.9560  -23.1690   12.0820 N.3    61  LEU61      -0.1231
     30  CA        21.7660  -22.0470   11.1650 C.3    61  LEU61       0.1693
     31  C         23.0810  -21.3970   10.7540 C.2    61  LEU61       0.2591
     32  O         23.0860  -20.4330    9.9930 O.2    61  LEU61      -0.2718
     33  CB        20.8180  -20.9980   11.7540 C.3    61  LEU61       0.0284
     34  CG        19.3640  -21.3540   12.0820 C.3    61  LEU61       0.0019
     35  CD1       18.5920  -20.0810   12.3830 C.3    61  LEU61       0.0001
     36  CD2       18.6800  -22.1410   10.9680 C.3    61  LEU61       0.0001
     37  N         24.1900  -21.9180   11.2650 N.am   62  VAL62      -0.1980
     38  CA        25.5030  -21.5290   10.7770 C.3    62  VAL62       0.1595
     39  C         25.9560  -22.5720    9.7690 C.2    62  VAL62       0.2287
     40  O         26.3960  -22.2310    8.6700 O.2    62  VAL62      -0.2864
     41  CB        26.5430  -21.4010   11.9020 C.3    62  VAL62       0.0276
     42  CG1       27.8630  -20.9030   11.3440 C.3    62  VAL62       0.0022
     43  CG2       26.0520  -20.4530   12.9740 C.3    62  VAL62       0.0022
     44  N         24.0900  -22.3050    6.5160 N.3    65  LEU65      -0.1245
     45  CA        24.5630  -21.1930    5.7000 C.3    65  LEU65       0.1561
     46  C         26.0060  -21.4080    5.2440 C.2    65  LEU65       0.2260
     47  O         26.5220  -20.6410    4.4310 O.2    65  LEU65      -0.2867
     48  CB        24.4200  -19.8730    6.4590 C.3    65  LEU65       0.0270
     49  CG        24.1800  -18.5930    5.6520 C.3    65  LEU65       0.0019
     50  CD1       22.8650  -18.6480    4.8760 C.3    65  LEU65       0.0001
     51  CD2       24.2020  -17.3800    6.5690 C.3    65  LEU65       0.0001
     52  N         30.3510  -12.9050    5.7430 N.3    97  ILE97      -0.1231
     53  CA        29.3070  -12.7360    6.7550 C.3    97  ILE97       0.1692
     54  C         29.4090  -13.8360    7.8050 C.2    97  ILE97       0.2591
     55  O         29.1320  -13.6090    8.9820 O.2    97  ILE97      -0.2718
     56  CB        27.8880  -12.6700    6.1150 C.3    97  ILE97       0.0266
     57  CG1       27.7610  -11.4420    5.2000 C.3    97  ILE97       0.0019
     58  CG2       26.7860  -12.6660    7.1760 C.3    97  ILE97       0.0020
     59  CD1       28.4060  -10.1520    5.7440 C.3    97  ILE97       0.0001
     60  N         29.8320  -15.0200    7.3710 N.am   98  LEU98      -0.1980
     61  CA        30.0900  -16.1310    8.2810 C.3    98  LEU98       0.1596
     62  C         31.3220  -15.8810    9.1470 C.2    98  LEU98       0.2287
     63  O         31.4240  -16.4180   10.2440 O.2    98  LEU98      -0.2864
     64  CB        30.2310  -17.4510    7.5150 C.3    98  LEU98       0.0297
     65  CG        28.9730  -18.0490    6.8720 C.3    98  LEU98       0.0022
     66  CD1       29.3280  -19.2750    6.0430 C.3    98  LEU98       0.0001
     67  CD2       27.8990  -18.3960    7.9010 C.3    98  LEU98       0.0001
     68  N         30.0730  -12.5770   11.5400 N.3   101  ASN101     -0.1225
     69  CA        29.1470  -13.0170   12.5900 C.3   101  ASN101      0.1785
     70  C         29.7770  -13.9950   13.5820 C.2   101  ASN101      0.2597
     71  O         29.2180  -14.2480   14.6520 O.2   101  ASN101     -0.2718
     72  CB        27.8620  -13.6050   11.9920 C.3   101  ASN101      0.1169
     73  CG        26.8260  -12.5400   11.6470 C.2   101  ASN101      0.2627
     74  OD1       25.7900  -12.8450   11.0560 O.2   101  ASN101     -0.2716
     75  ND2       27.0960  -11.2920   12.0180 N.am  101  ASN101     -0.0877
     76  N         30.9340  -14.5450   13.2160 N.am  102  ALA102     -0.1979
     77  CA        31.7040  -15.4030   14.1110 C.3   102  ALA102      0.1597
     78  C         32.5750  -14.5650   15.0460 C.2   102  ALA102      0.2287
     79  O         32.3960  -14.6160   16.2620 O.2   102  ALA102     -0.2864
     80  CB        32.5470  -16.3920   13.3220 C.3   102  ALA102      0.0319
     81  N         30.4770  -12.6670   17.1410 N.3   105  GLY105     -0.1225
     82  CA        29.6870  -13.6300   17.9050 C.3   105  GLY105      0.1811
     83  C         30.4780  -14.2400   19.0460 C.2   105  GLY105      0.2280
     84  O         29.9730  -14.3580   20.1660 O.2   105  GLY105     -0.2866
     85  N         16.0530  -17.9940   20.4030 N.3   253  LEU253     -0.1231
     86  CA        16.8730  -17.9390   19.1930 C.3   253  LEU253      0.1693
     87  C         17.4550  -19.2940   18.7990 C.2   253  LEU253      0.2592
     88  O         17.7130  -19.5420   17.6240 O.2   253  LEU253     -0.2718
     89  CB        17.9900  -16.8960   19.3290 C.3   253  LEU253      0.0284
     90  CG        17.5940  -15.4140   19.3700 C.3   253  LEU253      0.0019
     91  CD1       18.8330  -14.5460   19.4690 C.3   253  LEU253      0.0001
     92  CD2       16.7720  -15.0110   18.1510 C.3   253  LEU253      0.0001
     93  N         17.6590  -20.1660   19.7800 N.am  254  ASP254     -0.1974
     94  CA        18.0780  -21.5380   19.5080 C.3   254  ASP254      0.1709
     95  C         16.8780  -22.3800   19.0820 C.2   254  ASP254      0.2293
     96  O         16.9840  -23.2110   18.1780 O.2   254  ASP254     -0.2864
     97  CB        18.7710  -22.1470   20.7280 C.3   254  ASP254      0.1436
     98  CG        20.0650  -21.4330   21.0820 C.2   254  ASP254      0.3671
     99  OD1       20.3440  -20.3640   20.4990 O.co2 254  ASP254     -0.2456
    100  OD2       20.8100  -21.9360   21.9500 O.co2 254  ASP254     -0.2456
    101  N         14.1770  -21.1150   17.6820 N.3   256  PHE256     -0.1227
    102  CA        13.8930  -20.6200   16.3380 C.3   256  PHE256      0.1736
    103  C         14.8990  -21.2150   15.3640 C.2   256  PHE256      0.2596
    104  O         14.5480  -21.5590   14.2360 O.2   256  PHE256     -0.2718
    105  CB        13.9300  -19.0890   16.2910 C.3   256  PHE256      0.0547
    106  CG        13.8310  -18.5160   14.8970 C.ar  256  PHE256     -0.0202
    107  CD1       12.6100  -18.4600   14.2360 C.ar  256  PHE256     -0.0042
    108  CD2       14.9650  -18.0330   14.2450 C.ar  256  PHE256     -0.0042
    109  CE1       12.5220  -17.9320   12.9560 C.ar  256  PHE256     -0.0003
    110  CE2       14.8800  -17.5030   12.9610 C.ar  256  PHE256     -0.0003
    111  CZ        13.6570  -17.4520   12.3200 C.ar  256  PHE256     -0.0000
    112  N         16.1450  -21.3360   15.8170 N.am  257  GLY257     -0.1957
    113  CA        17.1970  -21.9860   15.0490 C.3   257  GLY257      0.1869
    114  C         16.7920  -23.3640   14.5610 C.2   257  GLY257      0.2309
    115  O         16.8250  -23.6380   13.3590 O.2   257  GLY257     -0.2863
    116  N         17.3610  -17.4080    6.6530 N.3   307  ILE307     -0.1231
    117  CA        18.3410  -16.9670    7.6390 C.3   307  ILE307      0.1678
    118  C         18.3080  -15.4470    7.7810 C.2   307  ILE307      0.2434
    119  O         18.6190  -14.7310    6.8320 O.2   307  ILE307     -0.2733
    120  CB        19.7730  -17.3930    7.2400 C.3   307  ILE307      0.0265
    121  CG1       19.8570  -18.9080    6.9550 C.3   307  ILE307      0.0019
    122  CG2       20.7870  -16.9100    8.2740 C.3   307  ILE307      0.0020
    123  CD1       19.8160  -19.8220    8.1720 C.3   307  ILE307      0.0001
    124  N         17.9310  -14.9460    8.9700 N.am  308  PRO308     -0.2718
    125  CA        17.8750  -13.5080    9.1370 C.3   308  PRO308      0.1535
    126  C         19.2330  -13.0060    9.5750 C.2   308  PRO308      0.2598
    127  O         19.3750  -12.4760   10.6670 O.2   308  PRO308     -0.2715
    128  CB        16.8320  -13.3230   10.2400 C.3   308  PRO308      0.0310
    129  CG        16.8080  -14.6180   10.9890 C.3   308  PRO308      0.0237
    130  CD        17.5680  -15.6510   10.2110 C.3   308  PRO308      0.0939
    131  N         20.2270  -13.2030    8.7150 N.am  309  GLU309     -0.1978
    132  CA        21.5880  -12.7140    8.9460 C.3   309  GLU309      0.1602
    133  C         21.6140  -11.2690    9.4590 C.2   309  GLU309      0.2287
    134  O         20.6460  -10.5210    9.2930 O.2   309  GLU309     -0.2864
    135  CB        22.4280  -12.8480    7.6640 C.3   309  GLU309      0.0415
    136  CG        21.6550  -12.6280    6.3460 C.3   309  GLU309      0.1163
    137  CD        21.3280  -13.9230    5.6060 C.2   309  GLU309      0.3649
    138  OE1       20.4300  -13.9110    4.7360 O.co2 309  GLU309     -0.2457
    139  OE2       21.9750  -14.9560    5.8770 O.co2 309  GLU309     -0.2457
    140  N         20.9980   -9.9590   12.1230 N.3   311  LEU311     -0.1231
    141  CA        20.2760   -9.8840   13.4030 C.3   311  LEU311      0.1678
    142  C         21.2290  -10.0210   14.5990 C.2   311  LEU311      0.2434
    143  O         21.1040   -9.2650   15.5670 O.2   311  LEU311     -0.2733
    144  CB        19.1580  -10.9310   13.4750 C.3   311  LEU311      0.0284
    145  CG        18.3080  -11.0580   14.7430 C.3   311  LEU311      0.0019
    146  CD1       17.3480   -9.8820   14.9130 C.3   311  LEU311      0.0001
    147  CD2       17.5420  -12.3650   14.7180 C.3   311  LEU311      0.0001
    148  N         22.1650  -10.9960   14.5520 N.am  312  PRO312     -0.2729
    149  CA        23.2910  -10.9460   15.4750 C.3   312  PRO312      0.1401
    150  C         23.8440   -9.5300   15.6830 C.2   312  PRO312      0.2269
    151  O         23.8830   -9.0460   16.8180 O.2   312  PRO312     -0.2865
    152  CB        24.3250  -11.8340   14.7880 C.3   312  PRO312      0.0296
    153  CG        23.5090  -12.8720   14.1430 C.3   312  PRO312      0.0237
    154  CD        22.2170  -12.2160   13.7240 C.3   312  PRO312      0.0939
@<TRIPOS>BOND
     1    47    46    2
     2   138   137   ar
     3    50    49    1
     4    57    59    1
     5    57    56    1
     6    46    45    1
     7   137   139   ar
     8   137   136    1
     9    49    48    1
    10    49    51    1
    11    45    48    1
    12    45    44    1
    13    52    53    1
    14    66    65    1
    15    56    53    1
    16    56    58    1
    17   136   135    1
    18   116   117    1
    19    53    54    1
    20   119   118    2
    21    65    64    1
    22    65    67    1
    23   121   120    1
    24   121   123    1
    25   120   117    1
    26   120   122    1
    27    60    54   am
    28    60    61    1
    29    64    61    1
    30   117   118    1
    31   135   132    1
    32   118   124   am
    33    54    55    2
    34    61    62    1
    35    40    39    2
    36   131   132    1
    37   131   126   am
    38   132   133    1
    39   124   125    1
    40   124   130    1
    41   125   126    1
    42   125   128    1
    43    62    63    2
    44   134   133    2
    45   126   127    2
    46    39    38    1
    47    32    31    2
    48   130   129    1
    49   128   129    1
    50    18    20   ar
    51    18    16   ar
    52    31    30    1
    53    31    37   am
    54    38    37    1
    55    38    41    1
    56    20    19   ar
    57    36    34    1
    58    74    73    2
    59    30    33    1
    60    30    29    1
    61    42    41    1
    62    16    15   ar
    63    68    69    1
    64    19    17   ar
    65    73    72    1
    66    73    75   am
    67    33    34    1
    68    41    43    1
    69    72    69    1
    70    34    35    1
    71    15    17   ar
    72    15    14    1
    73   140   141    1
    74   111   109   ar
    75   111   110   ar
    76    69    70    1
    77    14    11    1
    78    24    23    2
    79    13    12    2
    80   109   107   ar
    81   110   108   ar
    82    76    70   am
    83    76    77    1
    84    80    77    1
    85   115   114    2
    86   141   144    1
    87   141   142    1
    88   144   145    1
    89    70    71    2
    90    11    12    1
    91    11    10    1
    92   154   153    1
    93   154   148    1
    94    23    22    1
    95    77    78    1
    96   153   152    1
    97   107   106   ar
    98   104   103    2
    99   108   106   ar
   100   148   142   am
   101   148   149    1
   102   114   113    1
   103   142   143    2
   104   147   145    1
   105   145   146    1
   106   152   149    1
   107   106   105    1
   108    10     3   am
   109    78    79    2
   110   113   112    1
   111    22    21    1
   112    22    25    1
   113     4     3    2
   114   103   112   am
   115   103   102    1
   116   149   150    1
   117    25    26    1
   118     3     2    1
   119   150   151    2
   120   105   102    1
   121    26    28   ar
   122    26    27   ar
   123   102   101    1
   124     6     5    1
   125     6     7    1
   126     5     2    1
   127     2     1    1
   128    81    82    1
   129     8     7    2
   130     7     9   am
   131    88    87    2
   132    82    83    1
   133    92    90    1
   134    96    95    2
   135    87    86    1
   136    87    93   am
   137    83    84    2
   138    95    94    1
   139    86    89    1
   140    86    85    1
   141    89    90    1
   142    90    91    1
   143    94    93    1
   144    94    97    1
   145    99    98   ar
   146    97    98    1
   147    98   100   ar
