@<TRIPOS>MOLECULE
tmp/2eauA01.pdb
 118 109 0 0 0
SMALL
GASTEIGER

@<TRIPOS>ATOM
      1  N          3.5110    8.5510   89.9660 N.3   256  PHE256     -0.1241
      2  CA         2.7210    8.6110   88.7360 C.3   256  PHE256      0.1605
      3  C          3.6230    8.4940   87.5170 C.2   256  PHE256      0.2264
      4  O          3.2130    7.9790   86.4660 O.2   256  PHE256     -0.2867
      5  CB         1.9760    9.9350   88.6210 C.3   256  PHE256      0.0534
      6  CG         1.2640   10.1080   87.3030 C.ar  256  PHE256     -0.0203
      7  CD1       -0.0680    9.7170   87.1570 C.ar  256  PHE256     -0.0042
      8  CD2        1.9340   10.6210   86.1950 C.ar  256  PHE256     -0.0042
      9  CE1       -0.7230    9.8280   85.9250 C.ar  256  PHE256     -0.0003
     10  CE2        1.2920   10.7340   84.9650 C.ar  256  PHE256     -0.0003
     11  CZ        -0.0450   10.3350   84.8300 C.ar  256  PHE256     -0.0000
     12  N          4.3280    4.9080   87.0800 N.3   259  GLN259     -0.1231
     13  CA         3.1590    4.2940   86.4700 C.3   259  GLN259      0.1698
     14  C          3.1330    4.6900   84.9850 C.2   259  GLN259      0.2592
     15  O          2.9390    3.8470   84.1060 O.2   259  GLN259     -0.2718
     16  CB         1.8730    4.7730   87.1720 C.3   259  GLN259      0.0381
     17  CG         1.7150    4.3380   88.6450 C.3   259  GLN259      0.0905
     18  CD         0.5550    5.0570   89.3750 C.2   259  GLN259      0.2608
     19  OE1       -0.6210    4.7860   89.1220 O.2   259  GLN259     -0.2717
     20  NE2        0.8970    5.9810   90.2780 N.am  259  GLN259     -0.0878
     21  N          3.3560    5.9750   84.7120 N.am  260  LEU260     -0.1980
     22  CA         3.3540    6.4770   83.3430 C.3   260  LEU260      0.1596
     23  C          4.5510    5.9640   82.5480 C.2   260  LEU260      0.2287
     24  O          4.4240    5.5830   81.3810 O.2   260  LEU260     -0.2864
     25  CB         3.3400    8.0100   83.3450 C.3   260  LEU260      0.0297
     26  CG         3.1040    8.7090   82.0030 C.3   260  LEU260      0.0022
     27  CD1        1.8680    8.1280   81.3430 C.3   260  LEU260      0.0001
     28  CD2        2.9390   10.1970   82.2070 C.3   260  LEU260      0.0001
     29  N          3.7620    2.3700   81.2640 N.3   263  VAL263     -0.1245
     30  CA         2.8230    2.3390   80.1510 C.3   263  VAL263      0.1561
     31  C          3.5090    2.8240   78.8730 C.2   263  VAL263      0.2260
     32  O          3.5600    2.0950   77.8780 O.2   263  VAL263     -0.2867
     33  CB         1.5700    3.2130   80.4310 C.3   263  VAL263      0.0252
     34  CG1        0.8660    3.5720   79.1210 C.3   263  VAL263      0.0019
     35  CG2        0.6040    2.4480   81.3410 C.3   263  VAL263      0.0019
     36  N          3.4430    0.5530   75.5610 N.3   267  ILE267     -0.1245
     37  CA         2.8050    0.9210   74.2980 C.3   267  ILE267      0.1561
     38  C          3.7810    0.8800   73.1310 C.2   267  ILE267      0.2260
     39  O          3.3990    0.5490   72.0140 O.2   267  ILE267     -0.2867
     40  CB         2.1520    2.3230   74.3690 C.3   267  ILE267      0.0252
     41  CG1        0.8600    2.2490   75.1900 C.3   267  ILE267      0.0019
     42  CG2        1.8520    2.8400   72.9570 C.3   267  ILE267      0.0019
     43  CD1        0.1090    3.5440   75.2700 C.3   267  ILE267      0.0001
     44  N          2.2630   11.2750   75.7540 N.3   306  ALA306     -0.1245
     45  CA         1.9410   10.6490   77.0380 C.3   306  ALA306      0.1562
     46  C          2.3280   11.4720   78.2560 C.2   306  ALA306      0.2260
     47  O          1.7320   11.3460   79.3350 O.2   306  ALA306     -0.2867
     48  CB         2.6130    9.2630   77.1260 C.3   306  ALA306      0.0290
     49  N         -3.7010   15.4280   82.1940 N.3   765  ILE765     -0.1245
     50  CA        -3.4980   14.0090   81.9060 C.3   765  ILE765      0.1561
     51  C         -4.5370   13.4240   80.9420 C.2   765  ILE765      0.2260
     52  O         -4.2090   12.5680   80.1140 O.2   765  ILE765     -0.2867
     53  CB        -3.4260   13.1890   83.2050 C.3   765  ILE765      0.0252
     54  CG1       -2.3300   13.8030   84.0980 C.3   765  ILE765      0.0019
     55  CG2       -3.0720   11.7290   82.8890 C.3   765  ILE765      0.0019
     56  CD1       -2.2160   13.2340   85.5080 C.3   765  ILE765      0.0001
     57  N         -3.5690   14.1170   77.6500 N.3   768  ASN768     -0.1225
     58  CA        -2.5140   13.2250   77.2040 C.3   768  ASN768      0.1785
     59  C         -3.0550   11.8920   76.7160 C.2   768  ASN768      0.2597
     60  O         -2.5680   11.3640   75.7340 O.2   768  ASN768     -0.2718
     61  CB        -1.4780   13.0240   78.3100 C.3   768  ASN768      0.1169
     62  CG        -0.6670   14.2800   78.5750 C.2   768  ASN768      0.2627
     63  OD1       -0.8460   14.9490   79.5940 O.2   768  ASN768     -0.2716
     64  ND2        0.2210   14.6160   77.6440 N.am  768  ASN768     -0.0877
     65  N         -4.0630   11.3500   77.3900 N.am  769  VAL769     -0.1980
     66  CA        -4.6730   10.0780   76.9790 C.3   769  VAL769      0.1595
     67  C         -5.2940   10.2020   75.5810 C.2   769  VAL769      0.2287
     68  O         -5.1720    9.3060   74.7470 O.2   769  VAL769     -0.2864
     69  CB        -5.7890    9.6400   77.9570 C.3   769  VAL769      0.0276
     70  CG1       -6.3930    8.3340   77.5060 C.3   769  VAL769      0.0022
     71  CG2       -5.2210    9.5030   79.3660 C.3   769  VAL769      0.0022
     72  N         -2.5380    9.9860   73.1600 N.3   772  VAL772     -0.1231
     73  CA        -1.9350    8.6610   73.0550 C.3   772  VAL772      0.1692
     74  C         -2.8360    7.7180   72.2680 C.2   772  VAL772      0.2591
     75  O         -2.3570    6.8320   71.5500 O.2   772  VAL772     -0.2718
     76  CB        -1.6330    8.0620   74.4460 C.3   772  VAL772      0.0266
     77  CG1       -1.2400    6.6010   74.3230 C.3   772  VAL772      0.0020
     78  CG2       -0.4930    8.8260   75.0820 C.3   772  VAL772      0.0020
     79  N         -4.1410    7.9180   72.4070 N.am  773  VAL773     -0.1980
     80  CA        -5.1230    7.1110   71.7050 C.3   773  VAL773      0.1595
     81  C         -5.0530    7.5090   70.2550 C.2   773  VAL773      0.2287
     82  O         -5.2010    6.6760   69.3690 O.2   773  VAL773     -0.2864
     83  CB        -6.5310    7.3800   72.2350 C.3   773  VAL773      0.0276
     84  CG1       -7.5790    6.8100   71.2810 C.3   773  VAL773      0.0022
     85  CG2       -6.6700    6.7750   73.6260 C.3   773  VAL773      0.0022
     86  N         -5.8330   10.3500   90.4560 N.3   829  ILE829     -0.1231
     87  CA        -6.8340   10.0640   89.4390 C.3   829  ILE829      0.1692
     88  C         -7.0830    8.5580   89.3470 C.2   829  ILE829      0.2592
     89  O         -6.4040    7.8530   88.5830 O.2   829  ILE829     -0.2718
     90  CB        -6.3620   10.5880   88.0460 C.3   829  ILE829      0.0266
     91  CG1       -6.0230   12.0810   88.1390 C.3   829  ILE829      0.0019
     92  CG2       -7.4480   10.3550   86.9750 C.3   829  ILE829      0.0020
     93  CD1       -5.7060   12.7250   86.7860 C.3   829  ILE829      0.0001
     94  N         -8.0550    8.0690   90.1180 N.am  830  SER830     -0.1952
     95  CA        -8.3710    6.6400   90.1010 C.3   830  SER830      0.1924
     96  C         -9.8310    6.2690   90.3970 C.2   830  SER830      0.2314
     97  O        -10.5440    6.9610   91.1450 O.2   830  SER830     -0.2863
     98  CB        -7.4360    5.8980   91.0610 C.3   830  SER830      0.2116
     99  OG        -6.8920    6.8160   92.0000 O.3   830  SER830     -0.2180
    100  N        -10.9640    7.3050   86.5380 N.3   834  PHE834     -0.1241
    101  CA       -10.1280    6.5840   85.6040 C.3   834  PHE834      0.1605
    102  C        -11.0080    6.3750   84.3790 C.2   834  PHE834      0.2264
    103  O        -10.6900    6.8580   83.2870 O.2   834  PHE834     -0.2867
    104  CB        -9.7000    5.2450   86.1900 C.3   834  PHE834      0.0534
    105  CG        -8.7910    4.4800   85.2950 C.ar  834  PHE834     -0.0203
    106  CD1       -9.2980    3.5100   84.4290 C.ar  834  PHE834     -0.0042
    107  CD2       -7.4260    4.7700   85.2680 C.ar  834  PHE834     -0.0042
    108  CE1       -8.4550    2.8410   83.5410 C.ar  834  PHE834     -0.0003
    109  CE2       -6.5750    4.1140   84.3910 C.ar  834  PHE834     -0.0003
    110  CZ        -7.0880    3.1440   83.5220 C.ar  834  PHE834     -0.0000
    111  N        -10.9200    8.1530   81.0680 N.3   838  MET838     -0.1245
    112  CA       -10.4210    7.2270   80.0530 C.3   838  MET838      0.1570
    113  C        -11.2690    7.4710   78.8070 C.2   838  MET838      0.2261
    114  O        -10.7460    7.6380   77.7020 O.2   838  MET838     -0.2867
    115  CB       -10.5920    5.7700   80.5070 C.3   838  MET838      0.0387
    116  CG        -9.6170    4.7820   79.8780 C.3   838  MET838      0.0595
    117  SD        -7.8910    5.0970   80.3680 S.3   838  MET838     -0.1393
    118  CE        -7.0490    5.1690   78.7900 C.3   838  MET838      0.0692
@<TRIPOS>BOND
     1    82    81    2
     2    81    80    1
     3    84    83    1
     4    75    74    2
     5    80    83    1
     6    80    79    1
     7    39    38    2
     8    83    85    1
     9    74    79   am
    10    74    73    1
    11    42    40    1
    12    73    72    1
    13    73    76    1
    14    38    37    1
    15    37    40    1
    16    37    36    1
    17    77    76    1
    18    40    41    1
    19    76    78    1
    20    68    67    2
    21    41    43    1
    22    67    66    1
    23    60    59    2
    24    44    45    1
    25    59    58    1
    26    59    65   am
    27    66    65    1
    28    66    69    1
    29    45    48    1
    30    45    46    1
    31    58    57    1
    32    58    61    1
    33    70    69    1
    34    64    62   am
    35   114   113    2
    36    32    31    2
    37    69    71    1
    38    46    47    2
    39    61    62    1
    40    62    63    2
    41   118   117    1
    42   113   112    1
    43    31    30    1
    44    34    33    1
    45   116   117    1
    46   116   115    1
    47   112   115    1
    48   112   111    1
    49    52    51    2
    50    30    33    1
    51    30    29    1
    52    33    35    1
    53    51    50    1
    54    27    26    1
    55    24    23    2
    56    50    49    1
    57    50    53    1
    58    26    28    1
    59    26    25    1
    60    23    22    1
    61    55    53    1
    62    53    54    1
    63   103   102    2
    64    22    25    1
    65    22    21    1
    66   110   108   ar
    67   110   109   ar
    68   108   106   ar
    69    54    56    1
    70    15    14    2
    71   102   101    1
    72   109   107   ar
    73   106   105   ar
    74    21    14   am
    75    11    10   ar
    76    11     9   ar
    77    10     8   ar
    78    14    13    1
    79   107   105   ar
    80   105   104    1
    81   101   104    1
    82   101   100    1
    83     9     7   ar
    84     8     6   ar
    85     4     3    2
    86    13    12    1
    87    13    16    1
    88    93    91    1
    89    92    90    1
    90     7     6   ar
    91    16    17    1
    92     6     5    1
    93     3     2    1
    94    90    91    1
    95    90    87    1
    96    89    88    2
    97     5     2    1
    98    17    18    1
    99     2     1    1
   100    19    18    2
   101    88    87    1
   102    88    94   am
   103    18    20   am
   104    87    86    1
   105    95    94    1
   106    95    96    1
   107    95    98    1
   108    96    97    2
   109    98    99    1
