@<TRIPOS>MOLECULE
tmp/2eaxC02.pdb
 114 110 0 0 0
SMALL
GASTEIGER

@<TRIPOS>ATOM
      1  N         12.5810    0.6820   45.3030 N.3    30  ILE30      -0.1231
      2  CA        12.9030   -0.6610   45.7750 C.3    30  ILE30       0.1692
      3  C         13.7150   -1.4590   44.7620 C.2    30  ILE30       0.2592
      4  O         13.7390   -1.1430   43.5810 O.2    30  ILE30      -0.2718
      5  CB        11.6050   -1.4790   46.0710 C.3    30  ILE30       0.0266
      6  CG1       10.8400   -0.8620   47.2390 C.3    30  ILE30       0.0019
      7  CG2       11.9360   -2.9430   46.3680 C.3    30  ILE30       0.0020
      8  CD1        9.9350    0.2700   46.8450 C.3    30  ILE30       0.0001
      9  N         14.4070   -2.4810   45.2500 N.am   31  HIS31      -0.1962
     10  CA        15.1570   -3.3820   44.3900 C.3    31  HIS31       0.1787
     11  C         14.6370   -4.7800   44.7590 C.2    31  HIS31       0.2621
     12  O         14.2270   -5.0210   45.8980 O.2    31  HIS31      -0.2715
     13  CB        16.6760   -3.2590   44.6140 C.3    31  HIS31       0.0785
     14  CG        17.1900   -3.9580   45.8380 C.ar   31  HIS31       0.0821
     15  ND1       18.5010   -4.3710   45.9550 N.ar   31  HIS31      -0.2267
     16  CD2       16.5890   -4.2860   47.0060 C.ar   31  HIS31       0.1154
     17  CE1       18.6830   -4.9210   47.1420 C.ar   31  HIS31       0.1986
     18  NE2       17.5390   -4.8810   47.8000 N.ar   31  HIS31      -0.2212
     19  N         14.6290   -5.6910   43.7980 N.am   32  THR32      -0.1937
     20  CA        14.1210   -7.0310   44.0440 C.3    32  THR32       0.2028
     21  C         15.0840   -7.9250   44.8120 C.2    32  THR32       0.2642
     22  O         14.6690   -8.9190   45.3990 O.2    32  THR32      -0.2714
     23  CB        13.7720   -7.7330   42.7250 C.3    32  THR32       0.1808
     24  OG1       14.9450   -7.8060   41.9110 O.3    32  THR32      -0.2208
     25  CG2       12.6770   -6.9730   41.9770 C.3    32  THR32       0.0379
     26  N         16.3640   -7.5710   44.8000 N.am   33  ALA33      -0.1963
     27  CA        17.3970   -8.3510   45.4750 C.3    33  ALA33       0.1728
     28  C         17.5780   -9.7080   44.7940 C.2    33  ALA33       0.2616
     29  O         17.9410  -10.6880   45.4510 O.2    33  ALA33      -0.2715
     30  CB        17.0440   -8.5460   46.9590 C.3    33  ALA33       0.0334
     31  N         17.3270   -9.7500   43.4790 N.am   34  GLY34      -0.1955
     32  CA        17.4640  -10.9790   42.7080 C.3    34  GLY34       0.1869
     33  C         18.2410  -10.8030   41.4030 C.2    34  GLY34       0.2309
     34  O         19.0900   -9.9110   41.3040 O.2    34  GLY34      -0.2863
     35  N          8.1840  -12.8030   38.6560 N.3    50  ILE50      -0.1245
     36  CA         7.9590  -12.0490   39.8940 C.3    50  ILE50       0.1561
     37  C          6.4750  -11.9800   40.3000 C.2    50  ILE50       0.2260
     38  O          6.1420  -12.1000   41.4910 O.2    50  ILE50      -0.2867
     39  CB         8.5330  -10.6050   39.7710 C.3    50  ILE50       0.0252
     40  CG1       10.0510  -10.6540   39.5520 C.3    50  ILE50       0.0019
     41  CG2        8.2240   -9.8050   41.0290 C.3    50  ILE50       0.0019
     42  CD1       10.8490  -11.2620   40.7410 C.3    50  ILE50       0.0001
     43  N          5.3980  -15.2470   41.8590 N.3    53  PHE53      -0.1227
     44  CA         5.9160  -15.4950   43.2070 C.3    53  PHE53       0.1736
     45  C          5.0040  -14.8420   44.2420 C.2    53  PHE53       0.2595
     46  O          4.7020  -15.4270   45.2780 O.2    53  PHE53      -0.2718
     47  CB         7.3380  -14.9320   43.3670 C.3    53  PHE53       0.0547
     48  CG         7.9450  -15.1930   44.7280 C.ar   53  PHE53      -0.0202
     49  CD1        8.4580  -16.4500   45.0510 C.ar   53  PHE53      -0.0042
     50  CD2        7.9440  -14.2010   45.7040 C.ar   53  PHE53      -0.0042
     51  CE1        8.9620  -16.7160   46.3420 C.ar   53  PHE53      -0.0003
     52  CE2        8.4420  -14.4530   46.9930 C.ar   53  PHE53      -0.0003
     53  CZ         8.9500  -15.7120   47.3120 C.ar   53  PHE53      -0.0000
     54  N          4.5620  -13.6240   43.9470 N.am   54  TYR54      -0.1976
     55  CA         3.6880  -12.8840   44.8460 C.3    54  TYR54       0.1639
     56  C          2.3190  -13.5450   45.0140 C.2    54  TYR54       0.2290
     57  O          1.8310  -13.7090   46.1330 O.2    54  TYR54      -0.2864
     58  CB         3.5390  -11.4470   44.3330 C.3    54  TYR54       0.0560
     59  CG         4.4520  -10.4660   45.0290 C.ar   54  TYR54      -0.0198
     60  CD1        4.1040   -9.9240   46.2690 C.ar   54  TYR54      -0.0009
     61  CD2        5.6670  -10.0870   44.4650 C.ar   54  TYR54      -0.0009
     62  CE1        4.9410   -9.0230   46.9300 C.ar   54  TYR54       0.0417
     63  CE2        6.5190   -9.1850   45.1190 C.ar   54  TYR54       0.0417
     64  CZ         6.1450   -8.6570   46.3480 C.ar   54  TYR54       0.1957
     65  OH         6.9530   -7.7440   46.9860 O.3    54  TYR54      -0.2866
     66  N          3.6280  -15.8240   48.0680 N.3    58  LEU58      -0.1245
     67  CA         3.3110  -14.8670   49.1280 C.3    58  LEU58       0.1561
     68  C          1.8270  -14.7870   49.4840 C.2    58  LEU58       0.2260
     69  O          1.4650  -14.2990   50.5620 O.2    58  LEU58      -0.2867
     70  CB         3.8390  -13.4690   48.7580 C.3    58  LEU58       0.0270
     71  CG         5.2560  -13.1480   49.2610 C.3    58  LEU58       0.0019
     72  CD1        5.7410  -11.7930   48.7380 C.3    58  LEU58       0.0001
     73  CD2        5.2470  -13.1360   50.7760 C.3    58  LEU58       0.0001
     74  N          4.2530   -4.2990   43.3890 N.3    65  TYR65      -0.1241
     75  CA         4.9390   -3.0820   42.9420 C.3    65  TYR65       0.1605
     76  C          4.1380   -2.4300   41.8050 C.2    65  TYR65       0.2264
     77  O          3.6740   -3.1260   40.8930 O.2    65  TYR65      -0.2867
     78  CB         6.3350   -3.4200   42.3990 C.3    65  TYR65       0.0534
     79  CG         7.1780   -4.3600   43.2440 C.ar   65  TYR65      -0.0201
     80  CD1        7.8730   -5.4100   42.6540 C.ar   65  TYR65      -0.0009
     81  CD2        7.3170   -4.1770   44.6240 C.ar   65  TYR65      -0.0009
     82  CE1        8.6840   -6.2590   43.4050 C.ar   65  TYR65       0.0417
     83  CE2        8.1340   -5.0220   45.3860 C.ar   65  TYR65       0.0417
     84  CZ         8.8110   -6.0580   44.7660 C.ar   65  TYR65       0.1957
     85  OH         9.6130   -6.8960   45.4990 O.3    65  TYR65      -0.2866
     86  N          3.8580   -3.5690   49.7750 N.3    87  SER87      -0.1217
     87  CA         5.2450   -3.7000   50.2100 C.3    87  SER87       0.1889
     88  C          5.5830   -2.8780   51.4560 C.2    87  SER87       0.2288
     89  O          6.5800   -3.1530   52.1260 O.2    87  SER87      -0.2866
     90  CB         6.2010   -3.3180   49.0670 C.3    87  SER87       0.2089
     91  OG         6.0680   -1.9560   48.7030 O.3    87  SER87      -0.2183
     92  N         13.1400    2.4510   50.6810 N.3   139  HIS139     -0.1241
     93  CA        12.2870    1.4370   51.3040 C.3   139  HIS139      0.1621
     94  C         12.7050    1.2060   52.7550 C.2   139  HIS139      0.2264
     95  O         11.8720    0.9060   53.6140 O.2   139  HIS139     -0.2867
     96  CB        12.3760    0.1300   50.5110 C.3   139  HIS139      0.0745
     97  CG        11.2280   -0.8090   50.7340 C.ar  139  HIS139      0.0817
     98  ND1       11.1440   -2.0380   50.1090 N.ar  139  HIS139     -0.2268
     99  CD2       10.1230   -0.7090   51.5110 C.ar  139  HIS139      0.1154
    100  CE1       10.0390   -2.6530   50.4930 C.ar  139  HIS139      0.1986
    101  NE2        9.4010   -1.8680   51.3430 N.ar  139  HIS139     -0.2212
    102  N         13.5750   -3.5910   56.4020 N.3   145  THR145     -0.1218
    103  CA        14.3770   -4.1380   55.3060 C.3   145  THR145      0.1862
    104  C         15.5910   -3.2740   54.9430 C.2   145  THR145      0.2287
    105  O         15.6430   -2.0800   55.2500 O.2   145  THR145     -0.2866
    106  CB        13.5280   -4.3000   54.0250 C.3   145  THR145      0.1770
    107  OG1       14.3370   -4.8440   52.9720 O.3   145  THR145     -0.2211
    108  CG2       12.9940   -2.9520   53.5760 C.3   145  THR145      0.0375
    109  N         16.5760   -3.0260   51.7360 N.3   147  SER147     -0.1217
    110  CA        16.2850   -2.5630   50.3750 C.3   147  SER147      0.1889
    111  C         16.2190   -1.0430   50.3070 C.2   147  SER147      0.2288
    112  O         15.8860   -0.3980   51.2960 O.2   147  SER147     -0.2866
    113  CB        14.9490   -3.1580   49.9060 C.3   147  SER147      0.2089
    114  OG        14.5560   -2.6640   48.6330 O.3   147  SER147     -0.2183
@<TRIPOS>BOND
     1    35    36    1
     2    40    39    1
     3    40    42    1
     4    39    36    1
     5    39    41    1
     6    36    37    1
     7    37    38    2
     8    77    76    2
     9    34    33    2
    10    33    32    1
    11    76    75    1
    12    43    44    1
    13    24    23    1
    14    25    23    1
    15    78    75    1
    16    78    79    1
    17    80    79   ar
    18    80    82   ar
    19    32    31    1
    20    23    20    1
    21    75    74    1
    22    44    47    1
    23    44    45    1
    24    79    81   ar
    25    47    48    1
    26    82    84   ar
    27    31    28   am
    28     4     3    2
    29    19    20    1
    30    19    11   am
    31    54    45   am
    32    54    55    1
    33    20    21    1
    34    45    46    2
    35    58    55    1
    36    58    59    1
    37    10    13    1
    38    10    11    1
    39    10     9    1
    40    61    59   ar
    41    61    63   ar
    42    13    14    1
    43    81    83   ar
    44    48    49   ar
    45    48    50   ar
    46    11    12    2
    47     3     9   am
    48     3     2    1
    49    84    83   ar
    50    84    85    1
    51    28    29    2
    52    28    27    1
    53    26    21   am
    54    26    27    1
    55    21    22    2
    56    55    56    1
    57    56    57    2
    58    59    60   ar
    59    49    51   ar
    60    63    64   ar
    61     1     2    1
    62    27    30    1
    63    50    52   ar
    64     2     5    1
    65    14    15   ar
    66    14    16   ar
    67    15    17   ar
    68     5     7    1
    69     5     6    1
    70    60    62   ar
    71    51    53   ar
    72    64    62   ar
    73    64    65    1
    74     8     6    1
    75    52    53   ar
    76    16    18   ar
    77    17    18   ar
    78    66    67    1
    79   114   113    1
    80    91    90    1
    81    72    71    1
    82    70    67    1
    83    70    71    1
    84    90    87    1
    85    67    68    1
    86    71    73    1
    87    68    69    2
    88    86    87    1
    89   113   110    1
    90    98   100   ar
    91    98    97   ar
    92    87    88    1
    93   111   110    1
    94   111   112    2
    95   110   109    1
    96   100   101   ar
    97    96    97    1
    98    96    93    1
    99    92    93    1
   100    97    99   ar
   101    93    94    1
   102   101    99   ar
   103    88    89    2
   104    94    95    2
   105   107   106    1
   106   108   106    1
   107   106   103    1
   108   104   105    2
   109   104   103    1
   110   103   102    1
