@<TRIPOS>MOLECULE
tmp/2eaxC00.pdb
 143 138 0 0 0
SMALL
GASTEIGER

@<TRIPOS>ATOM
      1  N         12.5810    0.6820   45.3030 N.3    30  ILE30      -0.1245
      2  CA        12.9030   -0.6610   45.7750 C.3    30  ILE30       0.1561
      3  C         13.7150   -1.4590   44.7620 C.2    30  ILE30       0.2260
      4  O         13.7390   -1.1430   43.5810 O.2    30  ILE30      -0.2867
      5  CB        11.6050   -1.4790   46.0710 C.3    30  ILE30       0.0252
      6  CG1       10.8400   -0.8620   47.2390 C.3    30  ILE30       0.0019
      7  CG2       11.9360   -2.9430   46.3680 C.3    30  ILE30       0.0019
      8  CD1        9.9350    0.2700   46.8450 C.3    30  ILE30       0.0001
      9  N          4.5620  -13.6240   43.9470 N.3    54  TYR54      -0.1241
     10  CA         3.6880  -12.8840   44.8460 C.3    54  TYR54       0.1605
     11  C          2.3190  -13.5450   45.0140 C.2    54  TYR54       0.2264
     12  O          1.8310  -13.7090   46.1330 O.2    54  TYR54      -0.2867
     13  CB         3.5390  -11.4470   44.3330 C.3    54  TYR54       0.0534
     14  CG         4.4520  -10.4660   45.0290 C.ar   54  TYR54      -0.0201
     15  CD1        4.1040   -9.9240   46.2690 C.ar   54  TYR54      -0.0009
     16  CD2        5.6670  -10.0870   44.4650 C.ar   54  TYR54      -0.0009
     17  CE1        4.9410   -9.0230   46.9300 C.ar   54  TYR54       0.0417
     18  CE2        6.5190   -9.1850   45.1190 C.ar   54  TYR54       0.0417
     19  CZ         6.1450   -8.6570   46.3480 C.ar   54  TYR54       0.1957
     20  OH         6.9530   -7.7440   46.9860 O.3    54  TYR54      -0.2866
     21  N          3.6280  -15.8240   48.0680 N.3    58  LEU58      -0.1231
     22  CA         3.3110  -14.8670   49.1280 C.3    58  LEU58       0.1693
     23  C          1.8270  -14.7870   49.4840 C.2    58  LEU58       0.2592
     24  O          1.4650  -14.2990   50.5620 O.2    58  LEU58      -0.2718
     25  CB         3.8390  -13.4690   48.7580 C.3    58  LEU58       0.0284
     26  CG         5.2560  -13.1480   49.2610 C.3    58  LEU58       0.0019
     27  CD1        5.7410  -11.7930   48.7380 C.3    58  LEU58       0.0001
     28  CD2        5.2470  -13.1360   50.7760 C.3    58  LEU58       0.0001
     29  N          0.9740  -15.2750   48.5880 N.am   59  LYS59      -0.1966
     30  CA        -0.4710  -15.2520   48.8060 C.3    59  LYS59       0.1728
     31  C         -1.0200  -13.8290   48.7100 C.2    59  LYS59       0.2616
     32  O         -2.0320  -13.4980   49.3330 O.2    59  LYS59      -0.2715
     33  CB        -0.8210  -15.8350   50.1820 C.3    59  LYS59       0.0311
     34  CG        -0.4800  -17.3050   50.3750 C.3    59  LYS59       0.0038
     35  CD        -1.2040  -18.1910   49.3730 C.3    59  LYS59       0.0206
     36  CE        -1.2590  -19.6300   49.8620 C.3    59  LYS59       0.1093
     37  NZ         0.0780  -20.1520   50.2550 N.3    59  LYS59      -0.1314
     38  N         -0.3430  -12.9810   47.9450 N.am   60  SER60      -0.1950
     39  CA        -0.7930  -11.6050   47.7740 C.3    60  SER60       0.1924
     40  C         -1.7430  -11.5520   46.5760 C.2    60  SER60       0.2314
     41  O         -1.7300  -12.4480   45.7350 O.2    60  SER60      -0.2863
     42  CB         0.4040  -10.6760   47.5440 C.3    60  SER60       0.2116
     43  OG        -0.0010   -9.3160   47.5260 O.3    60  SER60      -0.2180
     44  N          4.2530   -4.2990   43.3890 N.3    65  TYR65      -0.1241
     45  CA         4.9390   -3.0820   42.9420 C.3    65  TYR65       0.1605
     46  C          4.1380   -2.4300   41.8050 C.2    65  TYR65       0.2264
     47  O          3.6740   -3.1260   40.8930 O.2    65  TYR65      -0.2867
     48  CB         6.3350   -3.4200   42.3990 C.3    65  TYR65       0.0534
     49  CG         7.1780   -4.3600   43.2440 C.ar   65  TYR65      -0.0201
     50  CD1        7.8730   -5.4100   42.6540 C.ar   65  TYR65      -0.0009
     51  CD2        7.3170   -4.1770   44.6240 C.ar   65  TYR65      -0.0009
     52  CE1        8.6840   -6.2590   43.4050 C.ar   65  TYR65       0.0417
     53  CE2        8.1340   -5.0220   45.3860 C.ar   65  TYR65       0.0417
     54  CZ         8.8110   -6.0580   44.7660 C.ar   65  TYR65       0.1957
     55  OH         9.6130   -6.8960   45.4990 O.3    65  TYR65      -0.2866
     56  N         -3.4680   -0.4790   44.1760 N.3    84  GLN84      -0.1245
     57  CA        -2.5370   -0.4400   45.3050 C.3    84  GLN84       0.1566
     58  C         -1.5210   -1.5780   45.2830 C.2    84  GLN84       0.2260
     59  O         -1.8170   -2.6740   44.8240 O.2    84  GLN84      -0.2867
     60  CB        -3.2890   -0.5170   46.6500 C.3    84  GLN84       0.0367
     61  CG        -4.3810    0.5170   46.8900 C.3    84  GLN84       0.0905
     62  CD        -4.9080    0.4570   48.3230 C.2    84  GLN84       0.2608
     63  OE1       -5.8900    1.1180   48.6710 O.2    84  GLN84      -0.2717
     64  NE2       -4.2420   -0.3320   49.1630 N.am   84  GLN84      -0.0878
     65  N          1.6320   -3.7800   47.6240 N.3    86  SER86      -0.1202
     66  CA         1.7080   -4.3690   48.9570 C.3    86  SER86       0.2020
     67  C          3.1500   -4.6310   49.3940 C.2    86  SER86       0.2619
     68  O          3.6110   -5.7760   49.3910 O.2    86  SER86      -0.2717
     69  CB         0.9110   -5.6800   49.0110 C.3    86  SER86       0.2103
     70  OG        -0.4860   -5.4480   49.0770 O.3    86  SER86      -0.2182
     71  N          3.8580   -3.5690   49.7750 N.am   87  SER87      -0.1937
     72  CA         5.2450   -3.7000   50.2100 C.3    87  SER87       0.2055
     73  C          5.5830   -2.8780   51.4560 C.2    87  SER87       0.2644
     74  O          6.5800   -3.1530   52.1260 O.2    87  SER87      -0.2714
     75  CB         6.2010   -3.3180   49.0670 C.3    87  SER87       0.2130
     76  OG         6.0680   -1.9560   48.7030 O.3    87  SER87      -0.2179
     77  N          4.7560   -1.8800   51.7710 N.am   88  THR88      -0.1937
     78  CA         4.9970   -1.0330   52.9420 C.3    88  THR88       0.2013
     79  C          3.7480   -0.8880   53.8150 C.2    88  THR88       0.2484
     80  O          2.8500   -0.1150   53.5010 O.2    88  THR88      -0.2729
     81  CB         5.4560    0.3850   52.5270 C.3    88  THR88       0.1807
     82  OG1        6.3610    0.3020   51.4200 O.3    88  THR88      -0.2208
     83  CG2        6.1690    1.0640   53.6780 C.3    88  THR88       0.0379
     84  N          3.6810   -1.6310   54.9320 N.am   89  PRO89      -0.2715
     85  CA         2.5500   -1.5970   55.8600 C.3    89  PRO89       0.1536
     86  C          2.2260   -0.2010   56.4030 C.2    89  PRO89       0.2599
     87  O          2.9890    0.3700   57.1960 O.2    89  PRO89      -0.2715
     88  CB         2.9900   -2.5510   56.9610 C.3    89  PRO89       0.0310
     89  CG         3.8130   -3.5420   56.2270 C.3    89  PRO89       0.0237
     90  CD         4.6530   -2.6520   55.3520 C.3    89  PRO89       0.0939
     91  N          1.0890    0.3380   55.9700 N.am   90  GLY90      -0.1955
     92  CA         0.6730    1.6500   56.4220 C.3    90  GLY90       0.1869
     93  C          0.9320    2.7480   55.4140 C.2    90  GLY90       0.2309
     94  O          0.5860    3.9070   55.6590 O.2    90  GLY90      -0.2863
     95  N          0.9810    1.6730   51.7650 N.3    92  ASP92      -0.1225
     96  CA         0.4750    1.0940   50.5200 C.3    92  ASP92       0.1805
     97  C         -0.6670    1.8740   49.8700 C.2    92  ASP92       0.2597
     98  O         -0.6480    2.1160   48.6580 O.2    92  ASP92      -0.2718
     99  CB         0.0140   -0.3450   50.7680 C.3    92  ASP92       0.1424
    100  CG         1.1630   -1.2850   51.1040 C.2    92  ASP92       0.3668
    101  OD1        0.9750   -2.1760   51.9730 O.co2  92  ASP92      -0.2456
    102  OD2        2.2440   -1.1400   50.4870 O.co2  92  ASP92      -0.2456
    103  N         -1.6650    2.2600   50.6620 N.am   93  ASP93      -0.1974
    104  CA        -2.8010    2.9870   50.1110 C.3    93  ASP93       0.1709
    105  C         -2.5000    4.4520   49.8250 C.2    93  ASP93       0.2293
    106  O         -3.3400    5.1610   49.2640 O.2    93  ASP93      -0.2864
    107  CB        -4.0080    2.8750   51.0350 C.3    93  ASP93       0.1436
    108  CG        -3.7760    3.5270   52.3620 C.2    93  ASP93       0.3671
    109  OD1       -2.7720    3.1850   53.0160 O.co2  93  ASP93      -0.2456
    110  OD2       -4.5990    4.3800   52.7500 O.co2  93  ASP93      -0.2456
    111  N         13.1400    2.4510   50.6810 N.3   139  HIS139     -0.1241
    112  CA        12.2870    1.4370   51.3040 C.3   139  HIS139      0.1621
    113  C         12.7050    1.2060   52.7550 C.2   139  HIS139      0.2264
    114  O         11.8720    0.9060   53.6140 O.2   139  HIS139     -0.2867
    115  CB        12.3760    0.1300   50.5110 C.3   139  HIS139      0.0745
    116  CG        11.2280   -0.8090   50.7340 C.ar  139  HIS139      0.0817
    117  ND1       11.1440   -2.0380   50.1090 N.ar  139  HIS139     -0.2268
    118  CD2       10.1230   -0.7090   51.5110 C.ar  139  HIS139      0.1154
    119  CE1       10.0390   -2.6530   50.4930 C.ar  139  HIS139      0.1986
    120  NE2        9.4010   -1.8680   51.3430 N.ar  139  HIS139     -0.2212
    121  N         10.2130    0.6200   56.3670 N.3   143  ALA143     -0.1231
    122  CA         9.9940   -0.8220   56.4670 C.3   143  ALA143      0.1694
    123  C         11.1650   -1.5590   57.1280 C.2   143  ALA143      0.2592
    124  O         12.2650   -1.0230   57.2580 O.2   143  ALA143     -0.2718
    125  CB         9.7230   -1.4070   55.0820 C.3   143  ALA143      0.0304
    126  N         10.9090   -2.7930   57.5480 N.am  144  ARG144     -0.1966
    127  CA        11.9210   -3.6340   58.1860 C.3   144  ARG144      0.1729
    128  C         12.7080   -4.3410   57.0860 C.2   144  ARG144      0.2616
    129  O         12.5210   -5.5370   56.8550 O.2   144  ARG144     -0.2715
    130  CB        11.2300   -4.6610   59.0950 C.3   144  ARG144      0.0348
    131  CG        12.1580   -5.5150   59.9460 C.3   144  ARG144      0.0492
    132  CD        12.3540   -6.9110   59.3630 C.3   144  ARG144      0.2205
    133  NE        13.0870   -7.7710   60.2880 N.pl3 144  ARG144     -0.0865
    134  CZ        13.2910   -9.0730   60.1110 C.cat 144  ARG144      0.5346
    135  NH1       12.8180   -9.6850   59.0340 N.pl3 144  ARG144      0.1354
    136  NH2       13.9620   -9.7660   61.0210 N.pl3 144  ARG144      0.1354
    137  N         13.5750   -3.5910   56.4020 N.am  145  THR145     -0.1951
    138  CA        14.3770   -4.1380   55.3060 C.3   145  THR145      0.1897
    139  C         15.5910   -3.2740   54.9430 C.2   145  THR145      0.2313
    140  O         15.6430   -2.0800   55.2500 O.2   145  THR145     -0.2863
    141  CB        13.5280   -4.3000   54.0250 C.3   145  THR145      0.1794
    142  OG1       14.3370   -4.8440   52.9720 O.3   145  THR145     -0.2208
    143  CG2       12.9940   -2.9520   53.5760 C.3   145  THR145      0.0378
@<TRIPOS>BOND
     1    47    46    2
     2    46    45    1
     3    48    45    1
     4    48    49    1
     5    50    49   ar
     6    50    52   ar
     7    45    44    1
     8    49    51   ar
     9    52    54   ar
    10     4     3    2
    11     9    10    1
    12    56    57    1
    13    13    10    1
    14    13    14    1
    15    16    14   ar
    16    16    18   ar
    17    51    53   ar
    18     3     2    1
    19    54    53   ar
    20    54    55    1
    21    59    58    2
    22    10    11    1
    23    11    12    2
    24    14    15   ar
    25    18    19   ar
    26    58    57    1
    27     1     2    1
    28    57    60    1
    29    41    40    2
    30     2     5    1
    31     5     7    1
    32     5     6    1
    33    15    17   ar
    34    19    17   ar
    35    19    20    1
    36    40    39    1
    37    60    61    1
    38     8     6    1
    39    61    62    1
    40    43    42    1
    41    42    39    1
    42    65    66    1
    43    39    38    1
    44    38    31   am
    45    21    22    1
    46    62    63    2
    47    62    64   am
    48    29    30    1
    49    29    23   am
    50    98    97    2
    51    76    75    1
    52    31    30    1
    53    31    32    2
    54    27    26    1
    55    25    22    1
    56    25    26    1
    57    30    33    1
    58    66    69    1
    59    66    67    1
    60    69    70    1
    61    75    72    1
    62    22    23    1
    63    26    28    1
    64   106   105    2
    65    35    36    1
    66    35    34    1
    67    68    67    2
    68    67    71   am
    69    23    24    2
    70    71    72    1
    71   105   104    1
    72    36    37    1
    73    97    96    1
    74    97   103   am
    75   117   119   ar
    76   117   116   ar
    77   104   103    1
    78   104   107    1
    79    33    34    1
    80    72    73    1
    81   102   100   ar
    82   119   120   ar
    83   115   116    1
    84   115   112    1
    85    96    99    1
    86    96    95    1
    87   111   112    1
    88   116   118   ar
    89    99   100    1
    90   107   108    1
    91   100   101   ar
    92   112   113    1
    93   120   118   ar
    94    82    81    1
    95    73    77   am
    96    73    74    2
    97    77    78    1
    98   108   110   ar
    99   108   109   ar
   100    81    78    1
   101    81    83    1
   102   113   114    2
   103    78    79    1
   104   142   141    1
   105    80    79    2
   106   143   141    1
   107    79    84   am
   108   141   138    1
   109    84    90    1
   110    84    85    1
   111   139   140    2
   112   139   138    1
   113   125   122    1
   114   138   137    1
   115    90    89    1
   116    93    94    2
   117    93    92    1
   118    85    86    1
   119    85    88    1
   120    91    86   am
   121    91    92    1
   122    89    88    1
   123   121   122    1
   124   137   128   am
   125    86    87    2
   126   122   123    1
   127   129   128    2
   128   128   127    1
   129   123   124    2
   130   123   126   am
   131   126   127    1
   132   127   130    1
   133   135   134    1
   134   130   131    1
   135   132   131    1
   136   132   133    1
   137   134   133    2
   138   134   136    1
