@<TRIPOS>MOLECULE
tmp/2eb8A00.pdb
 211 202 0 0 0
SMALL
GASTEIGER

@<TRIPOS>ATOM
      1  N          6.1470   -3.1160    7.1980 N.3    30  LEU30      -0.1245
      2  CA         5.2140   -3.5760    6.1330 C.3    30  LEU30       0.1561
      3  C          5.0330   -5.0910    6.1300 C.2    30  LEU30       0.2260
      4  O          3.9410   -5.5980    5.8700 O.2    30  LEU30      -0.2867
      5  CB         5.6440   -3.0270    4.7580 C.3    30  LEU30       0.0270
      6  CG         5.4820   -1.5120    4.5530 C.3    30  LEU30       0.0019
      7  CD1        5.8760   -1.1140    3.0870 C.3    30  LEU30       0.0001
      8  CD2        4.0570   -1.0040    4.8690 C.3    30  LEU30       0.0001
      9  N          2.6850   -5.7410    8.9250 N.3    33  LEU33      -0.1231
     10  CA         1.3530   -5.3280    8.4660 C.3    33  LEU33       0.1693
     11  C          0.7270   -6.3820    7.5630 C.2    33  LEU33       0.2592
     12  O         -0.4320   -6.7900    7.7630 O.2    33  LEU33      -0.2718
     13  CB         1.4380   -3.9770    7.7300 C.3    33  LEU33       0.0284
     14  CG         0.1670   -3.5570    6.9880 C.3    33  LEU33       0.0019
     15  CD1       -1.0250   -3.3850    7.9070 C.3    33  LEU33       0.0001
     16  CD2        0.4660   -2.2780    6.1830 C.3    33  LEU33       0.0001
     17  N          1.4730   -6.8190    6.5470 N.am   34  PHE34      -0.1976
     18  CA         0.8830   -7.7220    5.5490 C.3    34  PHE34       0.1639
     19  C          0.6970   -9.1430    6.0810 C.2    34  PHE34       0.2290
     20  O         -0.2120   -9.8450    5.6210 O.2    34  PHE34      -0.2864
     21  CB         1.6820   -7.7020    4.2570 C.3    34  PHE34       0.0560
     22  CG         1.6730   -6.3580    3.5820 C.ar   34  PHE34      -0.0200
     23  CD1        0.4760   -5.6420    3.4370 C.ar   34  PHE34      -0.0042
     24  CD2        2.8370   -5.8380    3.0390 C.ar   34  PHE34      -0.0042
     25  CE1        0.4820   -4.3790    2.8060 C.ar   34  PHE34      -0.0003
     26  CE2        2.8350   -4.5990    2.3970 C.ar   34  PHE34      -0.0003
     27  CZ         1.6620   -3.8760    2.2920 C.ar   34  PHE34      -0.0000
     28  N         -2.9500   -2.8060   -3.0670 N.3    44  PHE44      -0.1241
     29  CA        -1.6820   -2.2980   -3.5270 C.3    44  PHE44       0.1605
     30  C         -1.2620   -2.9850   -4.8180 C.2    44  PHE44       0.2264
     31  O         -0.8160   -4.1260   -4.8030 O.2    44  PHE44      -0.2867
     32  CB        -0.6220   -2.4730   -2.4330 C.3    44  PHE44       0.0534
     33  CG        -0.8200   -1.5660   -1.2390 C.ar   44  PHE44      -0.0203
     34  CD1       -0.2730   -0.2750   -1.2320 C.ar   44  PHE44      -0.0042
     35  CD2       -1.5200   -2.0070   -0.1210 C.ar   44  PHE44      -0.0042
     36  CE1       -0.4360    0.5510   -0.1270 C.ar   44  PHE44      -0.0003
     37  CE2       -1.6980   -1.1970    0.9850 C.ar   44  PHE44      -0.0003
     38  CZ        -1.1540    0.1020    0.9820 C.ar   44  PHE44      -0.0000
     39  N          2.1460   -4.5320   -4.8050 N.3    47  PHE47      -0.1241
     40  CA         2.4170   -5.6020   -3.8360 C.3    47  PHE47       0.1605
     41  C          1.6060   -6.8630   -4.0270 C.2    47  PHE47       0.2264
     42  O          1.9040   -7.8570   -3.3660 O.2    47  PHE47      -0.2867
     43  CB         2.2150   -5.1530   -2.3760 C.3    47  PHE47       0.0534
     44  CG         2.9420   -3.8960   -2.0070 C.ar   47  PHE47      -0.0203
     45  CD1        4.2710   -3.6940   -2.3840 C.ar   47  PHE47      -0.0042
     46  CD2        2.3070   -2.9290   -1.2450 C.ar   47  PHE47      -0.0042
     47  CE1        4.9190   -2.5310   -2.0420 C.ar   47  PHE47      -0.0003
     48  CE2        2.9620   -1.7480   -0.8930 C.ar   47  PHE47      -0.0003
     49  CZ         4.2650   -1.5550   -1.2930 C.ar   47  PHE47      -0.0000
     50  N          8.8040    1.2220   -0.5860 N.3    65  HIS65      -0.1241
     51  CA         7.5730    1.8170   -0.0790 C.3    65  HIS65       0.1621
     52  C          7.6530    2.0560    1.4200 C.2    65  HIS65       0.2264
     53  O          7.0850    3.0320    1.9370 O.2    65  HIS65      -0.2867
     54  CB         6.3350    1.0020   -0.3940 C.3    65  HIS65       0.0745
     55  CG         5.0840    1.8160   -0.3120 C.ar   65  HIS65       0.0817
     56  ND1        4.8370    2.8550   -1.1810 N.ar   65  HIS65      -0.2268
     57  CD2        4.0330    1.7870    0.5480 C.ar   65  HIS65       0.1154
     58  CE1        3.6840    3.4220   -0.8800 C.ar   65  HIS65       0.1986
     59  NE2        3.1760    2.7970    0.1670 N.ar   65  HIS65      -0.2212
     60  N          9.2700    5.3300    1.9020 N.3    68  THR68      -0.1203
     61  CA         8.3320    6.4040    1.5730 C.3    68  THR68       0.1994
     62  C          7.3260    6.6400    2.7040 C.2    68  THR68       0.2617
     63  O          7.0730    7.7900    3.1110 O.2    68  THR68      -0.2717
     64  CB         7.6090    6.0700    0.2820 C.3    68  THR68       0.1784
     65  OG1        8.5820    6.0390   -0.7800 O.3    68  THR68      -0.2211
     66  CG2        6.5590    7.1190   -0.0370 C.3    68  THR68       0.0376
     67  N          6.7580    5.5550    3.2160 N.am   69  VAL69      -0.1979
     68  CA         5.7560    5.6790    4.2720 C.3    69  VAL69       0.1595
     69  C          6.3640    6.3070    5.5270 C.2    69  VAL69       0.2287
     70  O          5.7920    7.2400    6.0890 O.2    69  VAL69      -0.2864
     71  CB         5.0810    4.3320    4.6080 C.3    69  VAL69       0.0276
     72  CG1        4.2080    4.4600    5.8910 C.3    69  VAL69       0.0022
     73  CG2        4.2380    3.8380    3.4320 C.3    69  VAL69       0.0022
     74  N          7.1810   10.0790    5.0480 N.3    72  ALA72      -0.1231
     75  CA         5.9400   10.8730    5.1240 C.3    72  ALA72       0.1694
     76  C          5.4700   10.9850    6.5760 C.2    72  ALA72       0.2591
     77  O          5.1490   12.0820    7.0650 O.2    72  ALA72      -0.2718
     78  CB         4.8660   10.2540    4.2810 C.3    72  ALA72       0.0304
     79  N          5.4420    9.8530    7.2770 N.am   73  LEU73      -0.1980
     80  CA         5.0410    9.8550    8.6840 C.3    73  LEU73       0.1596
     81  C          5.9770   10.6960    9.5670 C.2    73  LEU73       0.2287
     82  O          5.5250   11.4520   10.4480 O.2    73  LEU73      -0.2864
     83  CB         4.9640    8.4160    9.1940 C.3    73  LEU73       0.0297
     84  CG         4.6680    8.2520   10.6800 C.3    73  LEU73       0.0022
     85  CD1        3.3210    8.9350   11.0070 C.3    73  LEU73       0.0001
     86  CD2        4.6360    6.7380   11.0270 C.3    73  LEU73       0.0001
     87  N          5.4240   14.4380    9.5160 N.3    76  ILE76      -0.1245
     88  CA         4.2830   14.7940   10.3720 C.3    76  ILE76       0.1561
     89  C          4.7040   14.7640   11.8590 C.2    76  ILE76       0.2260
     90  O          4.5110   15.7450   12.6070 O.2    76  ILE76      -0.2867
     91  CB         3.0300   13.9110   10.0430 C.3    76  ILE76       0.0252
     92  CG1        2.5870   14.1530    8.5830 C.3    76  ILE76       0.0019
     93  CG2        1.8920   14.1600   11.0540 C.3    76  ILE76       0.0019
     94  CD1        1.7940   12.9840    7.9120 C.3    76  ILE76       0.0001
     95  N         -2.0680   15.3040    0.8010 N.3    90  LEU90      -0.1231
     96  CA        -2.0300   13.8700    1.0790 C.3    90  LEU90       0.1693
     97  C         -0.9470   13.1950    0.2430 C.2    90  LEU90       0.2592
     98  O         -1.0500   13.1990   -1.0040 O.2    90  LEU90      -0.2718
     99  CB        -3.3920   13.2410    0.7260 C.3    90  LEU90       0.0284
    100  CG        -3.5800   11.7460    0.9990 C.3    90  LEU90       0.0019
    101  CD1       -3.5930   11.4660    2.5090 C.3    90  LEU90       0.0001
    102  CD2       -4.8640   11.2410    0.3540 C.3    90  LEU90       0.0001
    103  N          0.0460   12.6010    0.8950 N.am   91  ALA91      -0.1966
    104  CA         1.0310   11.7670    0.1880 C.3    91  ALA91       0.1728
    105  C          0.3530   10.7310   -0.7070 C.2    91  ALA91       0.2616
    106  O         -0.6910   10.1440   -0.3560 O.2    91  ALA91      -0.2715
    107  CB         1.9590   11.0810    1.1850 C.3    91  ALA91       0.0334
    108  N          0.9350   10.5070   -1.8760 N.am   92  GLN92      -0.1963
    109  CA         0.3410    9.6070   -2.8650 C.3    92  GLN92       0.1733
    110  C          1.4450    8.9780   -3.6710 C.2    92  GLN92       0.2617
    111  O          2.3070    9.6880   -4.1880 O.2    92  GLN92      -0.2715
    112  CB        -0.5540   10.4050   -3.8100 C.3    92  GLN92       0.0408
    113  CG        -1.2090    9.5670   -4.9040 C.3    92  GLN92       0.0908
    114  CD        -2.0400   10.4090   -5.8760 C.2    92  GLN92       0.2608
    115  OE1       -2.2100   10.0400   -7.0420 O.2    92  GLN92      -0.2717
    116  NE2       -2.5560   11.5510   -5.3980 N.am   92  GLN92      -0.0878
    117  N          1.3990    7.6550   -3.7960 N.am   93  SER93      -0.1950
    118  CA         2.4060    6.9650   -4.5790 C.3    93  SER93       0.1924
    119  C          1.7550    6.1120   -5.6540 C.2    93  SER93       0.2314
    120  O          0.5330    5.8970   -5.6270 O.2    93  SER93      -0.2863
    121  CB         3.2760    6.1230   -3.6630 C.3    93  SER93       0.2116
    122  OG         2.8100    4.8070   -3.6090 O.3    93  SER93      -0.2180
    123  N          2.2610    3.0010   -5.8260 N.3    95  ALA95      -0.1231
    124  CA         2.0510    1.6830   -5.2170 C.3    95  ALA95       0.1694
    125  C          0.5690    1.3080   -5.1580 C.2    95  ALA95       0.2592
    126  O          0.2250    0.1340   -5.2360 O.2    95  ALA95      -0.2718
    127  CB         2.6760    1.5990   -3.8360 C.3    95  ALA95       0.0304
    128  N         -0.3020    2.3060   -5.0210 N.am   96  THR96      -0.1953
    129  CA        -1.7360    2.0280   -5.0080 C.3    96  THR96       0.1897
    130  C         -2.4930    3.0140   -5.8890 C.2    96  THR96       0.2313
    131  O         -2.1350    4.1830   -5.9630 O.2    96  THR96      -0.2863
    132  CB        -2.2950    2.0630   -3.5820 C.3    96  THR96       0.1794
    133  OG1       -3.6840    1.6880   -3.5950 O.3    96  THR96      -0.2208
    134  CG2       -2.1140    3.4500   -2.9590 C.3    96  THR96       0.0378
    135  N         -5.6950    3.3250   -5.2030 N.3    98  HIS98      -0.1241
    136  CA        -6.7970    3.5780   -4.2530 C.3    98  HIS98       0.1621
    137  C         -6.4210    4.6200   -3.2200 C.2    98  HIS98       0.2264
    138  O         -5.2540    4.7900   -2.9080 O.2    98  HIS98      -0.2867
    139  CB        -7.1190    2.3100   -3.4440 C.3    98  HIS98       0.0745
    140  CG        -7.5820    1.1440   -4.2590 C.ar   98  HIS98       0.0817
    141  ND1       -8.9170    0.8240   -4.4090 N.ar   98  HIS98      -0.2268
    142  CD2       -6.8900    0.1910   -4.9280 C.ar   98  HIS98       0.1154
    143  CE1       -9.0270   -0.2660   -5.1490 C.ar   98  HIS98       0.1986
    144  NE2       -7.8120   -0.6710   -5.4760 N.ar   98  HIS98      -0.2212
    145  N         -6.3060    4.8460    0.5220 N.3   100  ILE100     -0.1245
    146  CA        -6.2550    3.7660    1.4960 C.3   100  ILE100      0.1561
    147  C         -7.2010    4.0860    2.6410 C.2   100  ILE100      0.2260
    148  O         -7.1650    5.1870    3.1680 O.2   100  ILE100     -0.2867
    149  CB        -4.8120    3.5360    2.0120 C.3   100  ILE100      0.0252
    150  CG1       -3.9070    3.0810    0.8540 C.3   100  ILE100      0.0019
    151  CG2       -4.7950    2.5230    3.1440 C.3   100  ILE100      0.0019
    152  CD1       -4.2720    1.7070    0.2650 C.3   100  ILE100      0.0001
    153  N         -6.7730    0.9750    7.6810 N.3   104  TYR104     -0.1227
    154  CA        -5.4240    0.4240    7.3820 C.3   104  TYR104      0.1736
    155  C         -4.3420    1.2340    8.0980 C.2   104  TYR104      0.2595
    156  O         -3.2730    0.7040    8.4580 O.2   104  TYR104     -0.2718
    157  CB        -5.1240    0.4350    5.8900 C.3   104  TYR104      0.0548
    158  CG        -5.8600   -0.5480    5.0140 C.ar  104  TYR104     -0.0200
    159  CD1       -7.0290   -1.1600    5.4230 C.ar  104  TYR104     -0.0009
    160  CD2       -5.3730   -0.8400    3.7400 C.ar  104  TYR104     -0.0009
    161  CE1       -7.7080   -2.0670    4.5790 C.ar  104  TYR104      0.0417
    162  CE2       -6.0210   -1.7280    2.9120 C.ar  104  TYR104      0.0417
    163  CZ        -7.1790   -2.3380    3.3320 C.ar  104  TYR104      0.1957
    164  OH        -7.8420   -3.2170    2.5080 O.3   104  TYR104     -0.2866
    165  N         -4.5930    2.5190    8.3080 N.am  105  LEU105     -0.1980
    166  CA        -3.6520    3.3170    9.0900 C.3   105  LEU105      0.1596
    167  C         -3.6490    2.8630   10.5470 C.2   105  LEU105      0.2287
    168  O         -2.6190    2.9380   11.2300 O.2   105  LEU105     -0.2864
    169  CB        -3.9880    4.8040    8.9780 C.3   105  LEU105      0.0297
    170  CG        -3.8840    5.3860    7.5640 C.3   105  LEU105      0.0022
    171  CD1       -4.4960    6.7970    7.5840 C.3   105  LEU105      0.0001
    172  CD2       -2.4350    5.4370    7.1400 C.3   105  LEU105      0.0001
    173  N         -1.3880   -0.2310   10.3790 N.3   108  ILE108     -0.1245
    174  CA         0.0510    0.0290   10.2730 C.3   108  ILE108      0.1561
    175  C          0.5440    0.6510   11.5820 C.2   108  ILE108      0.2260
    176  O          1.7150    0.4560   11.9780 O.2   108  ILE108     -0.2867
    177  CB         0.4470    0.8610    9.0250 C.3   108  ILE108      0.0252
    178  CG1        1.9340    0.6180    8.6950 C.3   108  ILE108      0.0019
    179  CG2        0.0890    2.3440    9.2190 C.3   108  ILE108      0.0019
    180  CD1        2.4240    1.4090    7.4840 C.3   108  ILE108      0.0001
    181  N         -1.7780   11.5770   13.9840 N.3   139  PHE139     -0.1241
    182  CA        -1.4630   11.3240   12.5760 C.3   139  PHE139      0.1605
    183  C         -2.7050   10.8370   11.8130 C.2   139  PHE139      0.2264
    184  O         -3.0550   11.4050   10.7770 O.2   139  PHE139     -0.2867
    185  CB        -0.3040   10.3280   12.5030 C.3   139  PHE139      0.0534
    186  CG        -0.1660    9.6190   11.1760 C.ar  139  PHE139     -0.0203
    187  CD1        0.2490   10.3040   10.0320 C.ar  139  PHE139     -0.0042
    188  CD2       -0.3970    8.2490   11.1020 C.ar  139  PHE139     -0.0042
    189  CE1        0.3900    9.6120    8.8140 C.ar  139  PHE139     -0.0003
    190  CE2       -0.2550    7.5550    9.9120 C.ar  139  PHE139     -0.0003
    191  CZ         0.1340    8.2430    8.7710 C.ar  139  PHE139     -0.0000
    192  N         -4.8690   12.6810    8.7660 N.3   143  ILE143     -0.1245
    193  CA        -5.1520   12.0650    7.4470 C.3   143  ILE143      0.1561
    194  C         -6.6640   12.0580    7.1910 C.2   143  ILE143      0.2260
    195  O         -7.1060   12.4410    6.1200 O.2   143  ILE143     -0.2867
    196  CB        -4.5760   10.6730    7.3170 C.3   143  ILE143      0.0252
    197  CG1       -3.0270   10.7120    7.4300 C.3   143  ILE143      0.0019
    198  CG2       -5.0090   10.0500    5.9720 C.3   143  ILE143      0.0019
    199  CD1       -2.3370   11.5740    6.3510 C.3   143  ILE143      0.0001
    200  N         -8.7960   13.6920    4.0240 N.3   147  TYR147     -0.1241
    201  CA        -9.7640   12.9980    3.1620 C.3   147  TYR147      0.1605
    202  C        -11.0820   13.7590    3.1510 C.2   147  TYR147      0.2264
    203  O        -11.7020   13.9130    2.0970 O.2   147  TYR147     -0.2867
    204  CB       -10.0630   11.5940    3.6490 C.3   147  TYR147      0.0534
    205  CG        -9.0240   10.5150    3.3550 C.ar  147  TYR147     -0.0201
    206  CD1       -7.6640   10.8040    3.2620 C.ar  147  TYR147     -0.0009
    207  CD2       -9.4240    9.1940    3.1980 C.ar  147  TYR147     -0.0009
    208  CE1       -6.7260    9.7700    3.0170 C.ar  147  TYR147      0.0417
    209  CE2       -8.5040    8.1610    2.9590 C.ar  147  TYR147      0.0417
    210  CZ        -7.1480    8.4670    2.8730 C.ar  147  TYR147      0.1957
    211  OH        -6.2420    7.4570    2.6460 O.3   147  TYR147     -0.2866
@<TRIPOS>BOND
     1   115   114    2
     2   131   130    2
     3   130   129    1
     4   114   116   am
     5   114   113    1
     6   123   124    1
     7   119   120    2
     8   119   118    1
     9   144   143   ar
    10   144   142   ar
    11   126   125    2
    12   124   125    1
    13   124   127    1
    14   135   136    1
    15   125   128   am
    16   143   141   ar
    17   128   129    1
    18   129   132    1
    19   142   140   ar
    20   113   112    1
    21    30    31    2
    22    30    29    1
    23    39    40    1
    24   118   117    1
    25   118   121    1
    26   141   140   ar
    27   140   139    1
    28   136   139    1
    29   136   137    1
    30   111   110    2
    31    41    40    1
    32    41    42    2
    33    40    43    1
    34   112   109    1
    35   117   110   am
    36   110   109    1
    37   121   122    1
    38   133   132    1
    39   132   134    1
    40    29    28    1
    41    29    32    1
    42   137   138    2
    43   109   108    1
    44    32    33    1
    45    45    47   ar
    46    45    44   ar
    47    43    44    1
    48    47    49   ar
    49    44    46   ar
    50   108   105   am
    51    49    48   ar
    52    46    48   ar
    53    33    34   ar
    54    33    35   ar
    55    34    36   ar
    56    56    58   ar
    57    56    55   ar
    58    98    97    2
    59    58    59   ar
    60    65    64    1
    61   105   106    2
    62   105   104    1
    63    50    51    1
    64    54    55    1
    65    54    51    1
    66    55    57   ar
    67    36    38   ar
    68    35    37   ar
    69    51    52    1
    70    66    64    1
    71    59    57   ar
    72   104   103    1
    73   104   107    1
    74    97   103   am
    75    97    96    1
    76   152   150    1
    77    64    61    1
    78   102   100    1
    79   145   146    1
    80    99   100    1
    81    99    96    1
    82    95    96    1
    83   150   149    1
    84    38    37   ar
    85   100   101    1
    86    52    53    2
    87   146   149    1
    88   146   147    1
    89    61    60    1
    90    61    62    1
    91   149   151    1
    92   203   202    2
    93    27    26   ar
    94    27    25   ar
    95    26    24   ar
    96   164   163    1
    97   147   148    2
    98   211   210    1
    99    62    63    2
   100    62    67   am
   101    25    23   ar
   102   210   209   ar
   103   210   208   ar
   104   162   163   ar
   105   162   160   ar
   106   209   207   ar
   107   208   206   ar
   108    24    22   ar
   109     7     6    1
   110   202   201    1
   111   201   204    1
   112   201   200    1
   113   207   205   ar
   114    67    68    1
   115   206   205   ar
   116   163   161   ar
   117   205   204    1
   118    73    71    1
   119    23    22   ar
   120    22    21    1
   121   160   158   ar
   122    21    18    1
   123    68    71    1
   124    68    69    1
   125    78    75    1
   126     6     5    1
   127     6     8    1
   128   161   159   ar
   129    71    72    1
   130     5     2    1
   131   158   159   ar
   132   158   157    1
   133    74    75    1
   134    75    76    1
   135    69    70    2
   136    18    19    1
   137    18    17    1
   138    20    19    2
   139     4     3    2
   140   157   154    1
   141   198   196    1
   142   195   194    2
   143     3     2    1
   144     2     1    1
   145    16    14    1
   146   199   197    1
   147    17    11   am
   148    76    77    2
   149    76    79   am
   150    14    13    1
   151    14    15    1
   152   172   170    1
   153   194   193    1
   154    79    80    1
   155   196   197    1
   156   196   193    1
   157   154   153    1
   158   154   155    1
   159   193   192    1
   160   180   178    1
   161    11    12    2
   162    11    10    1
   163   170   171    1
   164   170   169    1
   165    13    10    1
   166    94    92    1
   167   155   165   am
   168   155   156    2
   169   165   166    1
   170    10     9    1
   171    92    91    1
   172    80    83    1
   173    80    81    1
   174   178   177    1
   175   191   189   ar
   176   191   190   ar
   177   189   187   ar
   178   169   166    1
   179   177   179    1
   180   177   174    1
   181   166   167    1
   182    83    84    1
   183    87    88    1
   184    81    82    2
   185   190   188   ar
   186   187   186   ar
   187    91    88    1
   188    91    93    1
   189   174   173    1
   190   174   175    1
   191    88    89    1
   192   167   168    2
   193    84    85    1
   194    84    86    1
   195   184   183    2
   196   188   186   ar
   197   186   185    1
   198   175   176    2
   199   183   182    1
   200    89    90    2
   201   185   182    1
   202   182   181    1
