@<TRIPOS>MOLECULE
tmp/2eb9A00.pdb
 164 157 0 0 0
SMALL
GASTEIGER

@<TRIPOS>ATOM
      1  N          6.3360   -2.8340    7.3470 N.3    30  LEU30      -0.1245
      2  CA         5.4410   -3.2570    6.2380 C.3    30  LEU30       0.1561
      3  C          5.2440   -4.7680    6.1940 C.2    30  LEU30       0.2260
      4  O          4.1350   -5.2470    5.9820 O.2    30  LEU30      -0.2867
      5  CB         5.9390   -2.7280    4.8940 C.3    30  LEU30       0.0270
      6  CG         5.7960   -1.2120    4.7210 C.3    30  LEU30       0.0019
      7  CD1        6.3340   -0.8110    3.3570 C.3    30  LEU30       0.0001
      8  CD2        4.2910   -0.7320    4.9260 C.3    30  LEU30       0.0001
      9  N          2.9180   -5.5530    9.0130 N.3    33  LEU33      -0.1231
     10  CA         1.5940   -5.1110    8.5350 C.3    33  LEU33       0.1693
     11  C          0.9640   -6.1250    7.5650 C.2    33  LEU33       0.2592
     12  O         -0.1730   -6.5770    7.7640 O.2    33  LEU33      -0.2718
     13  CB         1.7410   -3.7610    7.8270 C.3    33  LEU33       0.0284
     14  CG         0.5080   -3.2820    7.0560 C.3    33  LEU33       0.0019
     15  CD1       -0.5200   -3.0070    8.0480 C.3    33  LEU33       0.0001
     16  CD2        0.8810   -1.9940    6.2720 C.3    33  LEU33       0.0001
     17  N          1.7280   -6.4920    6.5310 N.am   34  PHE34      -0.1976
     18  CA         1.2460   -7.4330    5.5350 C.3    34  PHE34       0.1639
     19  C          1.0620   -8.8680    6.0240 C.2    34  PHE34       0.2290
     20  O          0.1810   -9.5540    5.5230 O.2    34  PHE34      -0.2864
     21  CB         2.0590   -7.3510    4.2510 C.3    34  PHE34       0.0560
     22  CG         1.8920   -6.0480    3.5290 C.ar   34  PHE34      -0.0200
     23  CD1        0.6210   -5.5290    3.2940 C.ar   34  PHE34      -0.0042
     24  CD2        2.9980   -5.3430    3.0780 C.ar   34  PHE34      -0.0042
     25  CE1        0.4600   -4.3230    2.6210 C.ar   34  PHE34      -0.0003
     26  CE2        2.8380   -4.1240    2.3810 C.ar   34  PHE34      -0.0003
     27  CZ         1.5650   -3.6160    2.1830 C.ar   34  PHE34      -0.0000
     28  N         -4.7570   -6.8080    2.8080 N.3    40  THR40      -0.1218
     29  CA        -4.4490   -5.4740    2.2940 C.3    40  THR40       0.1862
     30  C         -3.5360   -5.4870    1.0590 C.2    40  THR40       0.2287
     31  O         -3.5630   -4.5420    0.2510 O.2    40  THR40      -0.2866
     32  CB        -3.8670   -4.5320    3.3720 C.3    40  THR40       0.1770
     33  OG1       -2.5590   -4.9700    3.7790 O.3    40  THR40      -0.2211
     34  CG2       -4.7810   -4.4900    4.5900 C.3    40  THR40       0.0375
     35  N         -2.8840   -2.8730   -3.2450 N.3    44  PHE44      -0.1241
     36  CA        -1.7980   -2.0480   -3.7250 C.3    44  PHE44       0.1605
     37  C         -1.2020   -2.6830   -4.9640 C.2    44  PHE44       0.2264
     38  O         -0.6370   -3.7780   -4.8890 O.2    44  PHE44      -0.2867
     39  CB        -0.7420   -1.8760   -2.6350 C.3    44  PHE44       0.0534
     40  CG        -1.2810   -1.2570   -1.3750 C.ar   44  PHE44      -0.0203
     41  CD1       -1.5920    0.0930   -1.3330 C.ar   44  PHE44      -0.0042
     42  CD2       -1.5090   -2.0270   -0.2480 C.ar   44  PHE44      -0.0042
     43  CE1       -2.1210    0.6640   -0.1580 C.ar   44  PHE44      -0.0003
     44  CE2       -2.0270   -1.4660    0.9170 C.ar   44  PHE44      -0.0003
     45  CZ        -2.3360   -0.1260    0.9600 C.ar   44  PHE44      -0.0000
     46  N          2.3720   -3.8710   -4.6010 N.3    47  PHE47      -0.1241
     47  CA         2.6860   -4.9300   -3.6150 C.3    47  PHE47       0.1605
     48  C          1.9630   -6.2520   -3.8510 C.2    47  PHE47       0.2264
     49  O          2.2900   -7.2630   -3.2220 O.2    47  PHE47      -0.2867
     50  CB         2.3850   -4.4750   -2.1610 C.3    47  PHE47       0.0534
     51  CG         3.0640   -3.1910   -1.7590 C.ar   47  PHE47      -0.0203
     52  CD1        4.3670   -2.9310   -2.1530 C.ar   47  PHE47      -0.0042
     53  CD2        2.3920   -2.2500   -0.9740 C.ar   47  PHE47      -0.0042
     54  CE1        5.0000   -1.7560   -1.7890 C.ar   47  PHE47      -0.0003
     55  CE2        3.0070   -1.0630   -0.6100 C.ar   47  PHE47      -0.0003
     56  CZ         4.3140   -0.8150   -1.0170 C.ar   47  PHE47      -0.0000
     57  N          9.1320    1.8980   -0.4230 N.3    65  HIS65      -0.1241
     58  CA         7.9730    2.5010    0.1630 C.3    65  HIS65       0.1621
     59  C          8.0750    2.6200    1.6930 C.2    65  HIS65       0.2264
     60  O          7.5740    3.5810    2.2500 O.2    65  HIS65      -0.2867
     61  CB         6.7040    1.7880   -0.2350 C.3    65  HIS65       0.0745
     62  CG         5.5050    2.6160    0.0520 C.ar   65  HIS65       0.0817
     63  ND1        5.3340    3.8690   -0.4920 N.ar   65  HIS65      -0.2268
     64  CD2        4.4620    2.4230    0.8860 C.ar   65  HIS65       0.1154
     65  CE1        4.2180    4.4030   -0.0300 C.ar   65  HIS65       0.1986
     66  NE2        3.6690    3.5430    0.8010 N.ar   65  HIS65      -0.2212
     67  N          9.6880    5.8280    2.2920 N.3    68  THR68      -0.1203
     68  CA         8.6930    6.8830    2.0770 C.3    68  THR68       0.1994
     69  C          7.7750    7.0780    3.3000 C.2    68  THR68       0.2617
     70  O          7.6260    8.2090    3.8180 O.2    68  THR68      -0.2717
     71  CB         7.8980    6.6240    0.7930 C.3    68  THR68       0.1784
     72  OG1        8.7920    6.7290   -0.3240 O.3    68  THR68      -0.2211
     73  CG2        6.7740    7.6640    0.6240 C.3    68  THR68       0.0376
     74  N          7.1670    5.9830    3.7650 N.am   69  VAL69      -0.1979
     75  CA         6.2920    6.0270    4.9300 C.3    69  VAL69       0.1595
     76  C          6.9690    6.6620    6.1690 C.2    69  VAL69       0.2287
     77  O          6.4200    7.5720    6.8020 O.2    69  VAL69      -0.2864
     78  CB         5.7380    4.6000    5.2680 C.3    69  VAL69       0.0276
     79  CG1        4.9990    4.6040    6.6150 C.3    69  VAL69       0.0022
     80  CG2        4.8730    4.0750    4.1300 C.3    69  VAL69       0.0022
     81  N          7.8710   10.4320    5.8590 N.3    72  ALA72      -0.1231
     82  CA         6.6750   11.2660    5.9760 C.3    72  ALA72       0.1694
     83  C          6.2590   11.3380    7.4450 C.2    72  ALA72       0.2591
     84  O          5.9780   12.4070    7.9680 O.2    72  ALA72      -0.2718
     85  CB         5.5490   10.7210    5.1060 C.3    72  ALA72       0.0304
     86  N          6.2600   10.1930    8.1170 N.am   73  LEU73      -0.1980
     87  CA         5.8040   10.1300    9.4970 C.3    73  LEU73       0.1596
     88  C          6.7820   10.8170   10.4390 C.2    73  LEU73       0.2287
     89  O          6.3660   11.4950   11.3630 O.2    73  LEU73      -0.2864
     90  CB         5.5580    8.6710    9.9240 C.3    73  LEU73       0.0297
     91  CG         4.9360    8.5050   11.3040 C.3    73  LEU73       0.0022
     92  CD1        3.4510    9.0010   11.2760 C.3    73  LEU73       0.0001
     93  CD2        5.0260    7.0020   11.7830 C.3    73  LEU73       0.0001
     94  N         -0.3660   15.5830    2.7490 N.3    90  LEU90      -0.1245
     95  CA        -0.3780   14.1340    2.8820 C.3    90  LEU90       0.1561
     96  C         -1.8090   13.5670    2.7890 C.2    90  LEU90       0.2260
     97  O         -2.0310   12.5560    2.1210 O.2    90  LEU90      -0.2867
     98  CB         0.2810   13.7060    4.1870 C.3    90  LEU90       0.0270
     99  CG         0.2990   12.1970    4.4680 C.3    90  LEU90       0.0019
    100  CD1        1.1130   11.4210    3.4300 C.3    90  LEU90       0.0001
    101  CD2        0.7920   11.9210    5.9070 C.3    90  LEU90       0.0001
    102  N         -2.8590   13.6970   -1.0120 N.3    93  SER93      -0.1202
    103  CA        -2.4060   12.5430   -1.7950 C.3    93  SER93       0.2020
    104  C         -3.3110   11.3090   -1.6440 C.2    93  SER93       0.2618
    105  O         -3.5040   10.5730   -2.6110 O.2    93  SER93      -0.2717
    106  CB        -0.9570   12.1950   -1.4650 C.3    93  SER93       0.2103
    107  OG        -0.8120   11.7900   -0.1150 O.3    93  SER93      -0.2182
    108  N         -3.8780   11.0950   -0.4540 N.am   94  HIS94      -0.1975
    109  CA        -4.8740   10.0280   -0.2720 C.3    94  HIS94       0.1656
    110  C         -6.2850   10.5370   -0.5700 C.2    94  HIS94       0.2291
    111  O         -7.1470   10.5690    0.3040 O.2    94  HIS94      -0.2864
    112  CB        -4.7930    9.4080    1.1300 C.3    94  HIS94       0.0771
    113  CG        -3.3980    9.0790    1.5620 C.ar   94  HIS94       0.0820
    114  ND1       -2.9890    9.1570    2.8780 N.ar   94  HIS94      -0.2267
    115  CD2       -2.3090    8.6950    0.8490 C.ar   94  HIS94       0.1154
    116  CE1       -1.7130    8.8230    2.9560 C.ar   94  HIS94       0.1986
    117  NE2       -1.2770    8.5410    1.7390 N.ar   94  HIS94      -0.2212
    118  N         -6.2130    5.4380    1.1000 N.3    96  ILE96      -0.1245
    119  CA        -5.7710    4.6540    2.2570 C.3    96  ILE96       0.1561
    120  C         -6.8690    4.8830    3.3160 C.2    96  ILE96       0.2260
    121  O         -7.0190    6.0070    3.7900 O.2    96  ILE96      -0.2867
    122  CB        -4.4300    5.2060    2.8280 C.3    96  ILE96       0.0252
    123  CG1       -3.2490    5.0120    1.8560 C.3    96  ILE96       0.0019
    124  CG2       -4.1120    4.5920    4.2140 C.3    96  ILE96       0.0019
    125  CD1       -2.8410    3.5470    1.6410 C.3    96  ILE96       0.0001
    126  N         -6.4610    1.2430    7.8150 N.3   100  TYR100     -0.1227
    127  CA        -5.0780    0.8750    7.4210 C.3   100  TYR100      0.1736
    128  C         -4.0130    1.6560    8.2120 C.2   100  TYR100      0.2595
    129  O         -2.9320    1.1140    8.4880 O.2   100  TYR100     -0.2718
    130  CB        -4.8200    1.0870    5.9170 C.3   100  TYR100      0.0548
    131  CG        -5.4280    0.0610    5.0100 C.ar  100  TYR100     -0.0200
    132  CD1       -6.5190   -0.7110    5.4320 C.ar  100  TYR100     -0.0009
    133  CD2       -4.9530   -0.1070    3.7080 C.ar  100  TYR100     -0.0009
    134  CE1       -7.1140   -1.6570    4.5950 C.ar  100  TYR100      0.0417
    135  CE2       -5.5550   -1.0370    2.8410 C.ar  100  TYR100      0.0417
    136  CZ        -6.6360   -1.8070    3.3030 C.ar  100  TYR100      0.1957
    137  OH        -7.2470   -2.7320    2.4860 O.3   100  TYR100     -0.2866
    138  N         -4.2850    2.9310    8.4890 N.am  101  LEU101     -0.1980
    139  CA        -3.3940    3.7250    9.3410 C.3   101  LEU101      0.1596
    140  C         -3.3430    3.1360   10.7590 C.2   101  LEU101      0.2287
    141  O         -2.2970    3.1060   11.3610 O.2   101  LEU101     -0.2864
    142  CB        -3.8380    5.1860    9.3920 C.3   101  LEU101      0.0297
    143  CG        -3.9190    5.9860    8.0870 C.3   101  LEU101      0.0022
    144  CD1       -4.4190    7.3890    8.4510 C.3   101  LEU101      0.0001
    145  CD2       -2.6000    6.0200    7.3330 C.3   101  LEU101      0.0001
    146  N         -1.0210    0.0960   10.4790 N.3   104  ILE104     -0.1245
    147  CA         0.3910    0.4800   10.4140 C.3   104  ILE104      0.1561
    148  C          0.9280    1.0340   11.7550 C.2   104  ILE104      0.2260
    149  O          2.0840    0.7920   12.0850 O.2   104  ILE104     -0.2867
    150  CB         0.7220    1.3470    9.1640 C.3   104  ILE104      0.0252
    151  CG1        2.1910    1.1100    8.7230 C.3   104  ILE104      0.0019
    152  CG2        0.3210    2.7950    9.3580 C.3   104  ILE104      0.0019
    153  CD1        2.5530    1.7170    7.3710 C.3   104  ILE104      0.0001
    154  N         -2.1290   11.8090   15.0620 N.3   135  PHE135     -0.1241
    155  CA        -1.9330   11.8020   13.6250 C.3   135  PHE135      0.1605
    156  C         -3.1820   11.2610   12.8630 C.2   135  PHE135      0.2264
    157  O         -3.7120   11.9150   11.9450 O.2   135  PHE135     -0.2867
    158  CB        -0.6640   10.9710   13.3070 C.3   135  PHE135      0.0534
    159  CG        -0.5970   10.4650   11.8940 C.ar  135  PHE135     -0.0203
    160  CD1       -0.3620   11.3440   10.8310 C.ar  135  PHE135     -0.0042
    161  CD2       -0.7630    9.0910   11.6130 C.ar  135  PHE135     -0.0042
    162  CE1       -0.2870   10.8610    9.4830 C.ar  135  PHE135     -0.0003
    163  CE2       -0.6920    8.6040   10.2820 C.ar  135  PHE135     -0.0003
    164  CZ        -0.4520    9.4940    9.2170 C.ar  135  PHE135     -0.0000
@<TRIPOS>BOND
     1    37    38    2
     2    37    36    1
     3    46    47    1
     4    48    47    1
     5    48    49    2
     6    36    35    1
     7    36    39    1
     8    47    50    1
     9    39    40    1
    10   105   104    2
    11    50    51    1
    12    52    54   ar
    13    52    51   ar
    14   103   104    1
    15   103   106    1
    16   103   102    1
    17    54    56   ar
    18    51    53   ar
    19   104   108   am
    20   106   107    1
    21    40    41   ar
    22    40    42   ar
    23    41    43   ar
    24    56    55   ar
    25    53    55   ar
    26   110   109    1
    27   110   111    2
    28    63    65   ar
    29    63    62   ar
    30   108   109    1
    31    57    58    1
    32    72    71    1
    33   109   112    1
    34    42    44   ar
    35    61    62    1
    36    61    58    1
    37    43    45   ar
    38    65    66   ar
    39    62    64   ar
    40    58    59    1
    41    31    30    2
    42    73    71    1
    43    71    68    1
    44    66    64   ar
    45   115   113   ar
    46   115   117   ar
    47    44    45   ar
    48    30    29    1
    49   118   119    1
    50   112   113    1
    51   113   114   ar
    52   125   123    1
    53    59    60    2
    54   117   116   ar
    55   123   122    1
    56    68    67    1
    57    68    69    1
    58    97    96    2
    59    27    26   ar
    60    27    25   ar
    61   119   122    1
    62   119   120    1
    63    29    28    1
    64    29    32    1
    65    26    24   ar
    66   137   136    1
    67    25    23   ar
    68    94    95    1
    69    96    95    1
    70   122   124    1
    71   135   136   ar
    72   135   133   ar
    73   114   116   ar
    74    95    98    1
    75    24    22   ar
    76    23    22   ar
    77    69    74   am
    78    69    70    2
    79   136   134   ar
    80   120   121    2
    81     7     6    1
    82    32    33    1
    83    32    34    1
    84   100    99    1
    85    22    21    1
    86   133   131   ar
    87    74    75    1
    88    80    78    1
    89    98    99    1
    90    21    18    1
    91    99   101    1
    92   134   132   ar
    93     6     5    1
    94     6     8    1
    95     5     2    1
    96    75    78    1
    97    75    76    1
    98   131   132   ar
    99   131   130    1
   100    85    82    1
   101    78    79    1
   102    20    19    2
   103    18    19    1
   104    18    17    1
   105    81    82    1
   106   130   127    1
   107    82    83    1
   108     4     3    2
   109    76    77    2
   110     3     2    1
   111     2     1    1
   112    16    14    1
   113    17    11   am
   114    14    13    1
   115    14    15    1
   116   145   143    1
   117   153   151    1
   118   127   126    1
   119   127   128    1
   120    83    84    2
   121    83    86   am
   122    11    12    2
   123    11    10    1
   124    13    10    1
   125   143   144    1
   126   143   142    1
   127    86    87    1
   128   128   129    2
   129   128   138   am
   130   138   139    1
   131    10     9    1
   132   151   150    1
   133   150   152    1
   134   150   147    1
   135   164   162   ar
   136   164   163   ar
   137   139   142    1
   138   139   140    1
   139   162   160   ar
   140    87    90    1
   141    87    88    1
   142    90    91    1
   143   163   161   ar
   144   147   146    1
   145   147   148    1
   146    88    89    2
   147   140   141    2
   148   160   159   ar
   149    92    91    1
   150    91    93    1
   151   161   159   ar
   152   148   149    2
   153   159   158    1
   154   157   156    2
   155   156   155    1
   156   158   155    1
   157   155   154    1
