@<TRIPOS>MOLECULE
tmp/2ebaD00.pdb
 136 129 0 0 0
SMALL
GASTEIGER

@<TRIPOS>ATOM
      1  N         74.1290   -4.2320  -27.4220 N.3   261  PHE261     -0.1241
      2  CA        74.2980   -4.7840  -26.0850 C.3   261  PHE261      0.1605
      3  C         73.0470   -5.5990  -25.7150 C.2   261  PHE261      0.2264
      4  O         73.1580   -6.7140  -25.1970 O.2   261  PHE261     -0.2867
      5  CB        74.5090   -3.6300  -25.0900 C.3   261  PHE261      0.0534
      6  CG        74.6890   -4.0630  -23.6580 C.ar  261  PHE261     -0.0203
      7  CD1       75.9510   -4.0160  -23.0470 C.ar  261  PHE261     -0.0042
      8  CD2       73.5960   -4.4640  -22.9070 C.ar  261  PHE261     -0.0042
      9  CE1       76.1140   -4.3530  -21.7200 C.ar  261  PHE261     -0.0003
     10  CE2       73.7420   -4.8090  -21.5680 C.ar  261  PHE261     -0.0003
     11  CZ        75.0090   -4.7550  -20.9720 C.ar  261  PHE261     -0.0000
     12  N         73.3890   -9.7480  -24.7500 N.3   265  ARG265     -0.1231
     13  CA        73.3450  -10.1400  -23.3420 C.3   265  ARG265      0.1694
     14  C         71.9900  -10.7520  -23.0500 C.2   265  ARG265      0.2593
     15  O         70.9840  -10.3150  -23.5850 O.2   265  ARG265     -0.2718
     16  CB        73.6060   -8.9250  -22.4370 C.3   265  ARG265      0.0321
     17  CG        74.2470   -9.2760  -21.1090 C.3   265  ARG265      0.0489
     18  CD        75.7710   -9.1490  -21.1360 C.3   265  ARG265      0.2205
     19  NE        76.2150   -7.9750  -20.3860 N.pl3 265  ARG265     -0.0865
     20  CZ        75.9060   -7.7520  -19.1150 C.cat 265  ARG265      0.5346
     21  NH1       75.1610   -8.6250  -18.4530 N.pl3 265  ARG265      0.1354
     22  NH2       76.3130   -6.6440  -18.5160 N.pl3 265  ARG265      0.1354
     23  N         71.9570  -11.7640  -22.1840 N.am  266  SER266     -0.1938
     24  CA        70.7010  -12.4600  -21.8870 C.3   266  SER266      0.2055
     25  C         70.3650  -12.7280  -20.4140 C.2   266  SER266      0.2644
     26  O         71.2950  -12.8490  -19.5610 O.2   266  SER266     -0.2714
     27  CB        70.6960  -13.7470  -22.6970 C.3   266  SER266      0.2130
     28  OG        70.2850  -14.8550  -21.9170 O.3   266  SER266     -0.2179
     29  N         69.0880  -12.8610  -20.0580 N.am  267  THR267     -0.1936
     30  CA        68.7570  -13.1240  -18.6840 C.3   267  THR267      0.2028
     31  C         68.0500  -14.4250  -18.3050 C.2   267  THR267      0.2642
     32  O         68.6790  -15.5090  -18.3480 O.2   267  THR267     -0.2714
     33  CB        68.0150  -11.9400  -18.0640 C.3   267  THR267      0.1808
     34  OG1       68.9380  -10.9040  -17.7350 O.3   267  THR267     -0.2208
     35  CG2       67.4690  -12.3240  -16.7860 C.3   267  THR267      0.0379
     36  N         66.7760  -14.3520  -17.8700 N.am  268  PHE268     -0.1973
     37  CA        66.0170  -15.5170  -17.4570 C.3   268  PHE268      0.1639
     38  C         65.7500  -16.3200  -18.7010 C.2   268  PHE268      0.2290
     39  O         64.6020  -16.6830  -19.0010 O.2   268  PHE268     -0.2864
     40  CB        64.7060  -15.1210  -16.7670 C.3   268  PHE268      0.0560
     41  CG        64.9290  -14.3390  -15.5360 C.ar  268  PHE268     -0.0200
     42  CD1       65.3150  -13.0250  -15.6180 C.ar  268  PHE268     -0.0042
     43  CD2       64.8710  -14.9410  -14.2890 C.ar  268  PHE268     -0.0042
     44  CE1       65.6750  -12.3090  -14.5020 C.ar  268  PHE268     -0.0003
     45  CE2       65.2290  -14.2160  -13.1450 C.ar  268  PHE268     -0.0003
     46  CZ        65.6390  -12.9060  -13.2650 C.ar  268  PHE268     -0.0000
     47  N         68.2160   -9.9380  -23.4870 N.3   272  LEU272     -0.1245
     48  CA        67.7050   -8.7150  -22.9050 C.3   272  LEU272      0.1561
     49  C         66.7730   -8.0720  -23.9290 C.2   272  LEU272      0.2260
     50  O         65.7130   -7.5630  -23.5770 O.2   272  LEU272     -0.2867
     51  CB        68.8510   -7.7880  -22.6210 C.3   272  LEU272      0.0270
     52  CG        69.1420   -7.2930  -21.2010 C.3   272  LEU272      0.0019
     53  CD1       68.6130   -8.2760  -20.1320 C.3   272  LEU272      0.0001
     54  CD2       70.6830   -7.1670  -21.0820 C.3   272  LEU272      0.0001
     55  N         62.8950   -8.3910  -24.0040 N.3   275  LYS275     -0.1245
     56  CA        62.0330   -8.0050  -22.8900 C.3   275  LYS275      0.1561
     57  C         61.2060   -6.8190  -23.2640 C.2   275  LYS275      0.2260
     58  O         61.6970   -5.8760  -23.9310 O.2   275  LYS275     -0.2867
     59  CB        62.8280   -7.5790  -21.6820 C.3   275  LYS275      0.0271
     60  CG        63.8810   -8.5110  -21.3220 C.3   275  LYS275      0.0035
     61  CD        63.2560   -9.8470  -21.2150 C.3   275  LYS275      0.0206
     62  CE        64.2270  -10.7120  -20.5260 C.3   275  LYS275      0.1093
     63  NZ        63.5660  -12.0110  -20.3760 N.3   275  LYS275     -0.1314
     64  N         60.2450   -4.4010  -21.2990 N.3   277  LEU277     -0.1231
     65  CA        60.7650   -3.1530  -20.7380 C.3   277  LEU277      0.1693
     66  C         61.9880   -2.5770  -21.4510 C.2   277  LEU277      0.2591
     67  O         62.1470   -1.3560  -21.4890 O.2   277  LEU277     -0.2718
     68  CB        61.0410   -3.3330  -19.2480 C.3   277  LEU277      0.0284
     69  CG        59.7470   -3.5210  -18.4550 C.3   277  LEU277      0.0019
     70  CD1       60.0710   -3.9020  -17.0370 C.3   277  LEU277      0.0001
     71  CD2       58.9220   -2.2400  -18.5080 C.3   277  LEU277      0.0001
     72  N         62.8510   -3.4330  -22.0040 N.am  278  VAL278     -0.1980
     73  CA        64.0320   -2.9360  -22.7200 C.3   278  VAL278      0.1595
     74  C         63.6280   -2.5630  -24.1580 C.2   278  VAL278      0.2287
     75  O         64.1580   -1.6190  -24.7380 O.2   278  VAL278     -0.2864
     76  CB        65.1770   -3.9820  -22.7670 C.3   278  VAL278      0.0276
     77  CG1       65.5120   -4.4630  -21.3590 C.3   278  VAL278      0.0022
     78  CG2       64.7780   -5.1340  -23.6440 C.3   278  VAL278      0.0022
     79  N         62.2170    1.0050  -24.2430 N.3   281  LYS281     -0.1245
     80  CA        63.2490    2.0540  -24.2080 C.3   281  LYS281      0.1561
     81  C         63.8710    2.2980  -25.5920 C.2   281  LYS281      0.2260
     82  O         64.1140    3.4360  -25.9830 O.2   281  LYS281     -0.2867
     83  CB        64.3560    1.6860  -23.2060 C.3   281  LYS281      0.0271
     84  CG        63.8810    1.5960  -21.7450 C.3   281  LYS281      0.0035
     85  CD        64.9680    1.0620  -20.8340 C.3   281  LYS281      0.0206
     86  CE        64.4760    0.8330  -19.4080 C.3   281  LYS281      0.1093
     87  NZ        65.5170    0.1670  -18.5600 N.3   281  LYS281     -0.1314
     88  N         72.4440    4.1550  -20.7540 N.3   332  ARG332     -0.1231
     89  CA        73.3380    3.8350  -19.6470 C.3   332  ARG332      0.1694
     90  C         72.5710    2.8480  -18.7640 C.2   332  ARG332      0.2592
     91  O         73.1280    1.8590  -18.2950 O.2   332  ARG332     -0.2718
     92  CB        73.7020    5.1070  -18.8620 C.3   332  ARG332      0.0321
     93  CG        75.0230    5.0610  -18.0520 C.3   332  ARG332      0.0489
     94  CD        74.9910    3.9950  -16.9700 C.3   332  ARG332      0.2205
     95  NE        73.8420    4.1700  -16.0850 N.pl3 332  ARG332     -0.0865
     96  CZ        73.4060    3.2540  -15.2250 C.cat 332  ARG332      0.5346
     97  NH1       74.0150    2.0870  -15.1270 N.pl3 332  ARG332      0.1354
     98  NH2       72.3640    3.5050  -14.4550 N.pl3 332  ARG332      0.1354
     99  N         71.2820    3.1110  -18.5690 N.am  333  ASP333     -0.1960
    100  CA        70.4190    2.2510  -17.7530 C.3   333  ASP333      0.1840
    101  C         70.4250    0.8370  -18.3190 C.2   333  ASP333      0.2621
    102  O         70.5470   -0.1520  -17.5870 O.2   333  ASP333     -0.2715
    103  CB        68.9950    2.8190  -17.7300 C.3   333  ASP333      0.1450
    104  CG        68.0070    1.9190  -17.0090 C.2   333  ASP333      0.3671
    105  OD1       68.4190    1.1430  -16.1320 O.co2 333  ASP333     -0.2456
    106  OD2       66.7970    1.9970  -17.3090 O.co2 333  ASP333     -0.2456
    107  N         70.3060    0.7580  -19.6390 N.am  334  ILE334     -0.1977
    108  CA        70.3100   -0.5120  -20.3490 C.3   334  ILE334      0.1596
    109  C         71.6540   -1.2430  -20.2470 C.2   334  ILE334      0.2287
    110  O         71.6850   -2.4710  -20.1950 O.2   334  ILE334     -0.2864
    111  CB        69.9710   -0.2980  -21.8400 C.3   334  ILE334      0.0276
    112  CG1       68.5200    0.1740  -21.9820 C.3   334  ILE334      0.0022
    113  CG2       70.1760   -1.5800  -22.6070 C.3   334  ILE334      0.0022
    114  CD1       68.1130    0.5510  -23.4030 C.3   334  ILE334      0.0001
    115  N         73.6800   -1.2130  -17.7380 N.3   336  GLY336     -0.1210
    116  CA        73.8850   -1.6760  -16.3780 C.3   336  GLY336      0.1956
    117  C         75.2510   -1.2610  -15.8740 C.2   336  GLY336      0.2612
    118  O         75.7030   -0.1400  -16.1320 O.2   336  GLY336     -0.2717
    119  N         75.9080   -2.1630  -15.1540 N.am  337  GLY337     -0.1942
    120  CA        77.2330   -1.8810  -14.6300 C.3   337  GLY337      0.2014
    121  C         78.2140   -1.4880  -15.7170 C.2   337  GLY337      0.2639
    122  O         79.0290   -0.5810  -15.5360 O.2   337  GLY337     -0.2714
    123  N         78.1300   -2.1540  -16.8610 N.am  338  SER338     -0.1949
    124  CA        79.0310   -1.8650  -17.9750 C.3   338  SER338      0.1924
    125  C         78.9460   -0.4280  -18.4790 C.2   338  SER338      0.2314
    126  O         79.8770    0.0610  -19.1170 O.2   338  SER338     -0.2863
    127  CB        78.7480   -2.8230  -19.1260 C.3   338  SER338      0.2116
    128  OG        78.8690   -4.1640  -18.6890 O.3   338  SER338     -0.2180
    129  N         78.8400    2.4170  -16.6430 N.3   340  ILE340     -0.1245
    130  CA        79.4740    3.4500  -15.8320 C.3   340  ILE340      0.1561
    131  C         80.9440    3.6520  -16.1450 C.2   340  ILE340      0.2260
    132  O         81.6190    4.4540  -15.4970 O.2   340  ILE340     -0.2867
    133  CB        79.3510    3.1470  -14.3300 C.3   340  ILE340      0.0252
    134  CG1       80.2330    1.9550  -13.9560 C.3   340  ILE340      0.0019
    135  CG2       77.9070    2.8440  -13.9810 C.3   340  ILE340      0.0019
    136  CD1       80.5240    1.8650  -12.4760 C.3   340  ILE340      0.0001
@<TRIPOS>BOND
     1     1     2    1
     2     2     3    1
     3     2     5    1
     4    82    81    2
     5     3     4    2
     6    81    80    1
     7     5     6    1
     8    12    13    1
     9    75    74    2
    10    79    80    1
    11    80    83    1
    12    74    73    1
    13    55    56    1
    14    58    57    2
    15    49    50    2
    16    49    48    1
    17     6     7   ar
    18     6     8   ar
    19    78    76    1
    20    15    14    2
    21    47    48    1
    22   114   112    1
    23    13    14    1
    24    13    16    1
    25    57    56    1
    26    83    84    1
    27    14    23   am
    28     7     9   ar
    29     8    10   ar
    30    48    51    1
    31    56    59    1
    32    76    73    1
    33    76    77    1
    34    73    72    1
    35    27    28    1
    36    27    24    1
    37    51    52    1
    38   113   111    1
    39    16    17    1
    40    23    24    1
    41    72    66   am
    42   112   111    1
    43    24    25    1
    44   111   108    1
    45    84    85    1
    46     9    11   ar
    47    59    60    1
    48    10    11   ar
    49    67    66    2
    50    66    65    1
    51    60    61    1
    52    64    65    1
    53    61    62    1
    54    52    54    1
    55    52    53    1
    56    18    17    1
    57    18    19    1
    58    85    86    1
    59    88    89    1
    60    65    68    1
    61    62    63    1
    62    25    29   am
    63    25    26    2
    64    19    20    2
    65   108   109    1
    66   108   107    1
    67   109   110    2
    68    29    30    1
    69    89    92    1
    70    89    90    1
    71   107   101   am
    72    86    87    1
    73    68    69    1
    74   127   128    1
    75   127   124    1
    76   126   125    2
    77    20    22    1
    78    20    21    1
    79    39    38    2
    80    92    93    1
    81    90    99   am
    82    90    91    2
    83    38    37    1
    84    30    31    1
    85    30    33    1
    86    99   100    1
    87    71    69    1
    88   125   124    1
    89    69    70    1
    90    32    31    2
    91   101   100    1
    92   101   102    2
    93    31    36   am
    94    33    34    1
    95    33    35    1
    96    93    94    1
    97   124   123    1
    98    36    37    1
    99   100   103    1
   100   115   116    1
   101   103   104    1
   102    37    40    1
   103   106   104   ar
   104   104   105   ar
   105    94    95    1
   106   123   121   am
   107    40    41    1
   108   129   130    1
   109   116   117    1
   110   131   130    1
   111   131   132    2
   112   118   117    2
   113    95    96    2
   114   117   119   am
   115   130   133    1
   116   121   122    2
   117   121   120    1
   118    42    41   ar
   119    42    44   ar
   120    41    43   ar
   121    96    97    1
   122    96    98    1
   123   119   120    1
   124    44    46   ar
   125   133   135    1
   126   133   134    1
   127    43    45   ar
   128   134   136    1
   129    46    45   ar
