@<TRIPOS>MOLECULE
tmp/2ec9B00.pdb
 204 198 0 0 0
SMALL
GASTEIGER

@<TRIPOS>ATOM
      1  N         18.3080    6.5930    0.0160 N.3    24  GLN24      -0.1231
      2  CA        18.6560    7.1780    1.3030 C.3    24  GLN24       0.1698
      3  C         20.1260    7.6100    1.3240 C.2    24  GLN24       0.2592
      4  O         21.0250    6.7860    1.1290 O.2    24  GLN24      -0.2718
      5  CB        18.4060    6.1470    2.4020 C.3    24  GLN24       0.0381
      6  CG        18.6560    6.6380    3.8130 C.3    24  GLN24       0.0905
      7  CD        18.3660    5.5590    4.8370 C.2    24  GLN24       0.2608
      8  OE1       17.4470    4.7560    4.6610 O.2    24  GLN24      -0.2717
      9  NE2       19.1370    5.5390    5.9150 N.am   24  GLN24      -0.0878
     10  N         20.3620    8.8960    1.5640 N.am   25  LEU25      -0.1966
     11  CA        21.7260    9.4260    1.6090 C.3    25  LEU25       0.1728
     12  C         22.2230    9.7320    3.0170 C.2    25  LEU25       0.2616
     13  O         23.2480    9.2090    3.4530 O.2    25  LEU25      -0.2715
     14  CB        21.8380   10.7130    0.7850 C.3    25  LEU25       0.0311
     15  CG        23.2120   11.3820    0.9440 C.3    25  LEU25       0.0022
     16  CD1       24.2670   10.4890    0.3260 C.3    25  LEU25       0.0001
     17  CD2       23.2310   12.7550    0.2980 C.3    25  LEU25       0.0001
     18  N         21.4830   10.5840    3.7160 N.am   26  CYS26      -0.1968
     19  CA        21.8230   10.9920    5.0710 C.3    26  CYS26       0.1712
     20  C         20.6220   11.5800    5.8020 C.2    26  CYS26       0.2296
     21  O         19.5190   11.6640    5.2610 O.2    26  CYS26      -0.2864
     22  CB        22.9020   12.0770    5.0150 C.3    26  CYS26       0.0983
     23  SG        24.6280   11.5150    5.0170 S.3    26  CYS26      -0.0798
     24  N         30.2920   15.8090    4.9590 N.3    41  HIS41      -0.1241
     25  CA        30.7740   14.5440    4.4130 C.3    41  HIS41       0.1621
     26  C         29.7130   13.7320    3.6700 C.2    41  HIS41       0.2264
     27  O         30.0360   12.8090    2.9180 O.2    41  HIS41      -0.2867
     28  CB        31.4140   13.6930    5.5170 C.3    41  HIS41       0.0745
     29  CG        30.4340   12.8970    6.3220 C.ar   41  HIS41       0.0817
     30  ND1       30.1880   13.1490    7.6540 N.ar   41  HIS41      -0.2268
     31  CD2       29.6850   11.8140    5.9990 C.ar   41  HIS41       0.1154
     32  CE1       29.3360   12.2530    8.1190 C.ar   41  HIS41       0.1986
     33  NE2       29.0160   11.4300    7.1360 N.ar   41  HIS41      -0.2212
     34  N         30.2820   13.9540   -0.1760 N.3    44  ASP44      -0.1225
     35  CA        31.6000   13.6520   -0.7280 C.3    44  ASP44       0.1805
     36  C         31.5740   12.9250   -2.0710 C.2    44  ASP44       0.2597
     37  O         32.3980   13.1970   -2.9510 O.2    44  ASP44      -0.2718
     38  CB        32.3980   12.8020    0.2580 C.3    44  ASP44       0.1424
     39  CG        33.0530   13.6220    1.3500 C.2    44  ASP44       0.3668
     40  OD1       32.7570   14.8330    1.4700 O.co2  44  ASP44      -0.2456
     41  OD2       33.8690   13.0370    2.0940 O.co2  44  ASP44      -0.2456
     42  N         30.6310   12.0050   -2.2330 N.am   45  LYS45      -0.1979
     43  CA        30.5290   11.2460   -3.4750 C.3    45  LYS45       0.1596
     44  C         29.3300   11.6010   -4.3440 C.2    45  LYS45       0.2287
     45  O         28.9170   10.8100   -5.1910 O.2    45  LYS45      -0.2864
     46  CB        30.5000    9.7520   -3.1470 C.3    45  LYS45       0.0298
     47  CG        31.6590    9.2940   -2.2720 C.3    45  LYS45       0.0038
     48  CD        31.5690    7.8050   -1.9560 C.3    45  LYS45       0.0206
     49  CE        30.2600    7.4560   -1.2450 C.3    45  LYS45       0.1093
     50  NZ        30.1290    5.9960   -0.9430 N.3    45  LYS45      -0.1314
     51  N         36.8070   13.4950    2.7340 N.3    85  GLY85      -0.1210
     52  CA        37.6030   12.3740    3.1930 C.3    85  GLY85       0.1956
     53  C         38.0720   12.5830    4.6190 C.2    85  GLY85       0.2613
     54  O         38.6450   11.6680    5.2110 O.2    85  GLY85      -0.2717
     55  N         37.8580   13.7800    5.1710 N.am   86  THR86      -0.1938
     56  CA        38.2650   14.0490    6.5560 C.3    86  THR86       0.2028
     57  C         37.0550   14.3060    7.4620 C.2    86  THR86       0.2642
     58  O         35.9050   14.1790    7.0190 O.2    86  THR86      -0.2714
     59  CB        39.2740   15.2310    6.6600 C.3    86  THR86       0.1808
     60  OG1       38.6440   16.4650    6.3050 O.3    86  THR86      -0.2208
     61  CG2       40.4410   14.9960    5.7330 C.3    86  THR86       0.0379
     62  N         37.3020   14.6700    8.7190 N.am   87  THR87      -0.1950
     63  CA        36.2090   14.9180    9.6560 C.3    87  THR87       0.1897
     64  C         35.9470   16.3410   10.1560 C.2    87  THR87       0.2313
     65  O         34.8500   16.6230   10.6300 O.2    87  THR87      -0.2863
     66  CB        36.3600   14.0000   10.9020 C.3    87  THR87       0.1794
     67  OG1       37.6490   14.2040   11.4880 O.3    87  THR87      -0.2208
     68  CG2       36.2370   12.5230   10.5190 C.3    87  THR87       0.0378
     69  N         32.5410   19.3920    9.6550 N.3    90  ASP90      -0.1239
     70  CA        31.5580   18.5090    9.0520 C.3    90  ASP90       0.1674
     71  C         30.1390   19.0640    9.1800 C.2    90  ASP90       0.2266
     72  O         29.3130   18.5620    9.9470 O.2    90  ASP90      -0.2867
     73  CB        31.6720   17.1300    9.6970 C.3    90  ASP90       0.1410
     74  CG        30.9580   16.0620    8.9110 C.2    90  ASP90       0.3668
     75  OD1       30.6010   16.3180    7.7490 O.co2  90  ASP90      -0.2456
     76  OD2       30.7690   14.9580    9.4480 O.co2  90  ASP90      -0.2456
     77  N         22.1290    2.7090   10.6390 N.3   134  GLN134     -0.1245
     78  CA        22.3070    1.3080   11.0060 C.3   134  GLN134      0.1566
     79  C         21.9660    1.0470   12.4730 C.2   134  GLN134      0.2260
     80  O         22.2950    1.8440   13.3640 O.2   134  GLN134     -0.2867
     81  CB        23.7450    0.8680   10.7210 C.3   134  GLN134      0.0367
     82  CG        24.1160    0.9240    9.2520 C.3   134  GLN134      0.0905
     83  CD        25.5720    0.5520    8.9900 C.2   134  GLN134      0.2608
     84  OE1       25.9580    0.2790    7.8510 O.2   134  GLN134     -0.2717
     85  NE2       26.3830    0.5590   10.0340 N.am  134  GLN134     -0.0878
     86  N         19.9150   -0.9420    8.0710 N.3   141  THR141     -0.1218
     87  CA        19.4070    0.3610    8.4670 C.3   141  THR141      0.1862
     88  C         17.9790    0.2120    8.9990 C.2   141  THR141      0.2287
     89  O         17.3230   -0.8120    8.7790 O.2   141  THR141     -0.2866
     90  CB        19.4400    1.3560    7.2890 C.3   141  THR141      0.1770
     91  OG1       18.6930    0.8320    6.1850 O.3   141  THR141     -0.2211
     92  CG2       20.8780    1.5940    6.8510 C.3   141  THR141      0.0375
     93  N         24.6500    4.3760   20.7340 N.3   186  ASP186     -0.1225
     94  CA        25.4170    5.3480   19.9560 C.3   186  ASP186      0.1805
     95  C         24.6940    5.6200   18.6410 C.2   186  ASP186      0.2598
     96  O         23.7560    4.9010   18.3020 O.2   186  ASP186     -0.2718
     97  CB        26.8000    4.7390   19.6860 C.3   186  ASP186      0.1424
     98  CG        27.7590    5.6930   18.9900 C.2   186  ASP186      0.3668
     99  OD1       27.5000    6.9130   18.9290 O.co2 186  ASP186     -0.2456
    100  OD2       28.7990    5.2030   18.5170 O.co2 186  ASP186     -0.2456
    101  N         25.0770    6.6840   17.9310 N.am  187  SER187     -0.1938
    102  CA        24.4440    6.9770   16.6510 C.3   187  SER187      0.2055
    103  C         25.3020    6.0940   15.7430 C.2   187  SER187      0.2643
    104  O         26.2590    5.4720   16.2270 O.2   187  SER187     -0.2714
    105  CB        24.5410    8.4610   16.2630 C.3   187  SER187      0.2130
    106  OG        25.7960    9.0150   16.5960 O.3   187  SER187     -0.2179
    107  N         25.0010    6.0320   14.4480 N.am  188  CYS188     -0.1953
    108  CA        25.7960    5.1770   13.5760 C.3   188  CYS188      0.1843
    109  C         25.7830    5.5960   12.1080 C.2   188  CYS188      0.2625
    110  O         25.1800    6.6080   11.7420 O.2   188  CYS188     -0.2714
    111  CB        25.2570    3.7500   13.7260 C.3   188  CYS188      0.0997
    112  SG        26.2590    2.3890   13.0540 S.3   188  CYS188     -0.0797
    113  N         26.4680    4.8180   11.2710 N.am  189  LYS189     -0.1963
    114  CA        26.5280    5.1080    9.8440 C.3   189  LYS189      0.1728
    115  C         25.1000    5.2160    9.3210 C.2   189  LYS189      0.2616
    116  O         24.2470    4.3960    9.6580 O.2   189  LYS189     -0.2715
    117  CB        27.2970    4.0030    9.1030 C.3   189  LYS189      0.0311
    118  CG        28.7840    3.9560    9.4610 C.3   189  LYS189      0.0038
    119  CD        29.6120    3.1710    8.4400 C.3   189  LYS189      0.0206
    120  CE        29.5670    1.6660    8.6770 C.3   189  LYS189      0.1093
    121  NZ        30.2710    1.2730    9.9400 N.3   189  LYS189     -0.1314
    122  N         24.8340    6.2320    8.5080 N.am  190  GLY190     -0.1955
    123  CA        23.4880    6.4060    7.9980 C.3   190  GLY190      0.1869
    124  C         22.7130    7.4400    8.8060 C.2   190  GLY190      0.2309
    125  O         21.7150    7.9750    8.3290 O.2   190  GLY190     -0.2863
    126  N         24.3750   10.0080   10.0280 N.3   192  SER192     -0.1217
    127  CA        25.1540   11.2150    9.7150 C.3   192  SER192      0.1889
    128  C         24.2960   12.3720    9.1990 C.2   192  SER192      0.2288
    129  O         23.3940   12.1760    8.3960 O.2   192  SER192     -0.2866
    130  CB        26.2280   10.8930    8.6660 C.3   192  SER192      0.2089
    131  OG        27.2060    9.9920    9.1670 O.3   192  SER192     -0.2183
    132  N         25.1540   14.5620   13.7250 N.3   210  VAL210     -0.1231
    133  CA        25.7880   13.2470   13.7480 C.3   210  VAL210      0.1692
    134  C         26.9210   13.3600   12.7320 C.2   210  VAL210      0.2593
    135  O         26.6700   13.6160   11.5610 O.2   210  VAL210     -0.2718
    136  CB        24.7930   12.1330   13.3410 C.3   210  VAL210      0.0266
    137  CG1       25.5010   10.8050   13.2910 C.3   210  VAL210      0.0020
    138  CG2       23.6370   12.0790   14.3450 C.3   210  VAL210      0.0020
    139  N         28.1620   13.1520   13.1700 N.am  211  SER211     -0.1938
    140  CA        29.3140   13.2640   12.2680 C.3   211  SER211      0.2055
    141  C         30.1790   12.0080   12.0400 C.2   211  SER211      0.2643
    142  O         30.2940   11.5240   10.9130 O.2   211  SER211     -0.2714
    143  CB        30.1970   14.4130   12.7690 C.3   211  SER211      0.2130
    144  OG        31.2970   14.6730   11.9080 O.3   211  SER211     -0.2179
    145  N         30.8030   11.4950   13.0930 N.am  212  TRP212     -0.1959
    146  CA        31.6410   10.3080   12.9530 C.3   212  TRP212      0.1771
    147  C         31.8750    9.5860   14.2750 C.2   212  TRP212      0.2620
    148  O         31.2990    9.9430   15.3060 O.2   212  TRP212     -0.2715
    149  CB        32.9930   10.6760   12.3380 C.3   212  TRP212      0.0590
    150  CG        33.8240   11.6370   13.1650 C.ar  212  TRP212      0.0006
    151  CD1       33.6960   12.9930   13.2220 C.ar  212  TRP212      0.0946
    152  CD2       34.9230   11.3040   14.0240 C.ar  212  TRP212      0.0152
    153  NE1       34.6530   13.5280   14.0550 N.ar  212  TRP212     -0.2442
    154  CE2       35.4170   12.5110   14.5610 C.ar  212  TRP212      0.0810
    155  CE3       35.5350   10.1000   14.3960 C.ar  212  TRP212      0.0012
    156  CZ2       36.4960   12.5500   15.4520 C.ar  212  TRP212      0.0191
    157  CZ3       36.6060   10.1400   15.2840 C.ar  212  TRP212      0.0001
    158  CH2       37.0740   11.3570   15.8000 C.ar  212  TRP212      0.0015
    159  N         32.7220    8.5600   14.2230 N.am  213  GLY213     -0.1940
    160  CA        33.0470    7.7910   15.4080 C.3   213  GLY213      0.2014
    161  C         33.6900    6.4570   15.0620 C.2   213  GLY213      0.2639
    162  O         33.5790    5.9860   13.9340 O.2   213  GLY213     -0.2714
    163  N         34.3710    5.8540   16.0320 N.am  214  GLN214     -0.1963
    164  CA        35.0150    4.5590   15.8360 C.3   214  GLN214      0.1733
    165  C         33.9240    3.5050   15.7480 C.2   214  GLN214      0.2617
    166  O         33.3300    3.1320   16.7600 O.2   214  GLN214     -0.2715
    167  CB        35.9300    4.2340   17.0160 C.3   214  GLN214      0.0408
    168  CG        37.1840    5.0720   17.0830 C.3   214  GLN214      0.0908
    169  CD        38.1070    4.8060   15.9130 C.2   214  GLN214      0.2608
    170  OE1       38.4410    3.6550   15.6260 O.2   214  GLN214     -0.2717
    171  NE2       38.5270    5.8690   15.2300 N.am  214  GLN214     -0.0878
    172  N         33.6640    3.0200   14.5410 N.am  215  GLY215     -0.1940
    173  CA        32.6180    2.0350   14.3860 C.3   215  GLY215      0.2014
    174  C         31.3800    2.6320   15.0220 C.2   215  GLY215      0.2639
    175  O         31.1880    3.8470   14.9790 O.2   215  GLY215     -0.2714
    176  N         30.5530    1.7910   15.6300 N.am  216  CYS216     -0.1967
    177  CA        29.3270    2.2540   16.2700 C.3   216  CYS216      0.1712
    178  C         29.1510    1.5390   17.6020 C.2   216  CYS216      0.2296
    179  O         29.0580    0.3200   17.6400 O.2   216  CYS216     -0.2864
    180  CB        28.1230    1.9490   15.3760 C.3   216  CYS216      0.0983
    181  SG        28.1250    2.7800   13.7580 S.3   216  CYS216     -0.0798
    182  N         30.5080    8.6460   20.3900 N.3   223  GLY223     -0.1210
    183  CA        30.1280    9.1800   19.0970 C.3   223  GLY223      0.1956
    184  C         30.6720   10.6050   19.0320 C.2   223  GLY223      0.2612
    185  O         30.8220   11.2510   20.0660 O.2   223  GLY223     -0.2717
    186  N         30.9960   11.0940   17.8390 N.am  224  VAL224     -0.1965
    187  CA        31.5130   12.4530   17.7180 C.3   224  VAL224      0.1727
    188  C         30.5370   13.2880   16.9030 C.2   224  VAL224      0.2616
    189  O         30.0650   12.8620   15.8530 O.2   224  VAL224     -0.2715
    190  CB        32.9260   12.4690   17.0860 C.3   224  VAL224      0.0290
    191  CG1       33.4870   13.8830   17.1010 C.3   224  VAL224      0.0023
    192  CG2       33.8520   11.5420   17.8770 C.3   224  VAL224      0.0023
    193  N         30.2470   14.4880   17.4020 N.am  225  TYR225     -0.1974
    194  CA        29.3150   15.4010   16.7540 C.3   225  TYR225      0.1639
    195  C         29.8930   16.7610   16.3950 C.2   225  TYR225      0.2290
    196  O         30.7620   17.2800   17.0910 O.2   225  TYR225     -0.2864
    197  CB        28.1080   15.6120   17.6760 C.3   225  TYR225      0.0560
    198  CG        27.4460   14.3170   18.0840 C.ar  225  TYR225     -0.0198
    199  CD1       28.0940   13.4160   18.9250 C.ar  225  TYR225     -0.0009
    200  CD2       26.2170   13.9480   17.5510 C.ar  225  TYR225     -0.0009
    201  CE1       27.5310   12.1720   19.2140 C.ar  225  TYR225      0.0417
    202  CE2       25.6540   12.7110   17.8320 C.ar  225  TYR225      0.0417
    203  CZ        26.3150   11.8330   18.6580 C.ar  225  TYR225      0.1957
    204  OH        25.7700   10.5970   18.9110 O.3   225  TYR225     -0.2866
@<TRIPOS>BOND
     1    45    44    2
     2    44    43    1
     3    43    46    1
     4    43    42    1
     5    46    47    1
     6    37    36    2
     7    47    48    1
     8    42    36   am
     9    36    35    1
    10    48    49    1
    11    49    50    1
    12    35    34    1
    13    35    38    1
    14     1     2    1
    15    38    39    1
    16    17    15    1
    17    16    15    1
    18    14    15    1
    19    14    11    1
    20     4     3    2
    21     2     3    1
    22     2     5    1
    23     3    10   am
    24    39    40   ar
    25    39    41   ar
    26    10    11    1
    27    11    12    1
    28     5     6    1
    29    51    52    1
    30    27    26    2
    31    12    13    2
    32    12    18   am
    33    52    53    1
    34    26    25    1
    35    18    19    1
    36     6     7    1
    37    25    24    1
    38    25    28    1
    39    53    55   am
    40    53    54    2
    41     8     7    2
    42     7     9   am
    43    22    23    1
    44    22    19    1
    45    19    20    1
    46    55    56    1
    47    21    20    2
    48    28    29    1
    49    61    59    1
    50    31    29   ar
    51    31    33   ar
    52    91    90    1
    53    60    59    1
    54    29    30   ar
    55    56    59    1
    56    56    57    1
    57    92    90    1
    58    58    57    2
    59    33    32   ar
    60    90    87    1
    61    57    62   am
    62    30    32   ar
    63    75    74   ar
    64    84    83    2
    65   123   122    1
    66   123   124    1
    67    86    87    1
    68   125   124    2
    69   129   128    2
    70   119   120    1
    71   119   118    1
    72    87    88    1
    73   122   115   am
    74   130   131    1
    75   130   127    1
    76   120   121    1
    77    62    63    1
    78    89    88    2
    79    74    76   ar
    80    74    73    1
    81    83    82    1
    82    83    85   am
    83    70    71    1
    84    70    69    1
    85    70    73    1
    86   117   118    1
    87   117   114    1
    88    71    72    2
    89   128   127    1
    90    82    81    1
    91   115   116    2
    92   115   114    1
    93    63    64    1
    94    63    66    1
    95   127   126    1
    96   114   113    1
    97    64    65    2
    98    68    66    1
    99    77    78    1
   100    81    78    1
   101    66    67    1
   102   142   141    2
   103    78    79    1
   104   113   109   am
   105   135   134    2
   106   110   109    2
   107   144   143    1
   108   141   140    1
   109   141   145   am
   110   109   108    1
   111   140   143    1
   112   140   139    1
   113   149   146    1
   114   149   150    1
   115    79    80    2
   116   134   139   am
   117   134   133    1
   118   146   145    1
   119   146   147    1
   120   112   111    1
   121   112   181    1
   122   150   151   ar
   123   150   152   ar
   124   151   153   ar
   125   137   136    1
   126   136   133    1
   127   136   138    1
   128   108   111    1
   129   108   107    1
   130   132   133    1
   131   181   180    1
   132   162   161    2
   133   152   155   ar
   134   152   154   ar
   135   153   154   ar
   136   159   147   am
   137   159   160    1
   138   147   148    2
   139   173   172    1
   140   173   174    1
   141   155   157   ar
   142   107   103   am
   143   172   165   am
   144   154   156   ar
   145   175   174    2
   146   174   176   am
   147   161   160    1
   148   161   163   am
   149   171   169   am
   150   157   158   ar
   151   180   177    1
   152   156   158   ar
   153   170   169    2
   154   176   177    1
   155   103   104    2
   156   103   102    1
   157   165   164    1
   158   165   166    2
   159   164   163    1
   160   164   167    1
   161   189   188    2
   162   169   168    1
   163   105   106    1
   164   105   102    1
   165   177   178    1
   166   195   194    1
   167   195   196    2
   168   102   101    1
   169   194   193    1
   170   194   197    1
   171   188   193   am
   172   188   187    1
   173   167   168    1
   174   190   191    1
   175   190   187    1
   176   190   192    1
   177   200   202   ar
   178   200   198   ar
   179   178   179    2
   180   197   198    1
   181   187   186    1
   182   202   203   ar
   183   186   184   am
   184   101    95   am
   185   198   199   ar
   186    96    95    2
   187   100    98   ar
   188    95    94    1
   189   203   204    1
   190   203   201   ar
   191   199   201   ar
   192    99    98   ar
   193    98    97    1
   194   184   183    1
   195   184   185    2
   196   183   182    1
   197    97    94    1
   198    94    93    1
