@<TRIPOS>MOLECULE
tmp/2eckB01.pdb
 187 183 0 0 0
SMALL
GASTEIGER

@<TRIPOS>ATOM
      1  N         53.1200   63.6000   81.9460 N.3     9  PRO9       -0.2102
      2  CA        53.2440   63.0210   80.6110 C.3     9  PRO9        0.1504
      3  C         51.8350   62.8800   80.0070 C.2     9  PRO9        0.2576
      4  O         50.9160   62.3570   80.6540 O.2     9  PRO9       -0.2718
      5  CB        53.8250   61.6380   80.9080 C.3     9  PRO9        0.0282
      6  CG        54.6990   61.8930   82.0740 C.3     9  PRO9        0.0208
      7  CD        53.8270   62.7810   82.9410 C.3     9  PRO9        0.0893
      8  N         51.6710   63.3240   78.7690 N.am   10  GLY10      -0.1943
      9  CA        50.3850   63.2200   78.1230 C.3    10  GLY10       0.2014
     10  C         49.4830   64.3760   78.4850 C.2    10  GLY10       0.2639
     11  O         48.3260   64.3740   78.1000 O.2    10  GLY10      -0.2714
     12  N         49.9930   65.3600   79.2180 N.am   11  ALA11      -0.1963
     13  CA        49.1800   66.5170   79.6110 C.3    11  ALA11       0.1728
     14  C         48.9160   67.4740   78.4650 C.2    11  ALA11       0.2617
     15  O         48.2950   68.5210   78.6730 O.2    11  ALA11      -0.2715
     16  CB        49.8300   67.2790   80.7620 C.3    11  ALA11       0.0334
     17  N         49.4370   67.1420   77.2800 N.am   12  GLY12      -0.1940
     18  CA        49.2450   67.9720   76.0970 C.3    12  GLY12       0.2014
     19  C         50.1610   69.1680   76.0550 C.2    12  GLY12       0.2639
     20  O         49.7190   70.2770   75.7360 O.2    12  GLY12      -0.2714
     21  N         51.4250   68.9600   76.4100 N.am   13  LYS13      -0.1963
     22  CA        52.3980   70.0580   76.3910 C.3    13  LYS13       0.1728
     23  C         52.8820   70.2790   74.9780 C.2    13  LYS13       0.2617
     24  O         52.9520   71.4250   74.5160 O.2    13  LYS13      -0.2715
     25  CB        53.5990   69.7430   77.2680 C.3    13  LYS13       0.0311
     26  CG        53.2410   69.4610   78.7010 C.3    13  LYS13       0.0038
     27  CD        54.4830   69.3820   79.5220 C.3    13  LYS13       0.0206
     28  CE        55.2880   68.1560   79.1530 C.3    13  LYS13       0.1093
     29  NZ        54.6080   66.8730   79.4720 N.3    13  LYS13      -0.1314
     30  N         53.2330   69.1620   74.3220 N.am   14  GLY14      -0.1940
     31  CA        53.7100   69.1680   72.9500 C.3    14  GLY14       0.2014
     32  C         52.6670   69.7010   71.9850 C.2    14  GLY14       0.2640
     33  O         52.9580   70.5990   71.1950 O.2    14  GLY14      -0.2714
     34  N         51.4610   69.1460   72.0450 N.am   15  THR15      -0.1936
     35  CA        50.3740   69.5850   71.2100 C.3    15  THR15       0.2028
     36  C         50.2990   71.1050   71.2920 C.2    15  THR15       0.2642
     37  O         50.3110   71.7910   70.2720 O.2    15  THR15      -0.2714
     38  CB        49.0850   68.9740   71.6820 C.3    15  THR15       0.1808
     39  OG1       49.0730   67.5760   71.3380 O.3    15  THR15      -0.2208
     40  CG2       47.9290   69.6430   71.0170 C.3    15  THR15       0.0379
     41  N         50.3070   71.6500   72.4980 N.am   16  GLN16      -0.1976
     42  CA        50.2770   73.1060   72.6240 C.3    16  GLN16       0.1601
     43  C         51.5670   73.7610   72.2190 C.2    16  GLN16       0.2287
     44  O         51.5930   74.9600   71.9250 O.2    16  GLN16      -0.2864
     45  CB        49.9500   73.5230   74.0420 C.3    16  GLN16       0.0394
     46  CG        48.5360   73.2160   74.4120 C.3    16  GLN16       0.0908
     47  CD        47.5720   73.8140   73.4250 C.2    16  GLN16       0.2608
     48  OE1       46.5310   73.2320   73.1150 O.2    16  GLN16      -0.2717
     49  NE2       47.9140   74.9850   72.9100 N.am   16  GLN16      -0.0878
     50  N         60.0580   72.6800   76.1230 N.3    84  ASP84      -0.1239
     51  CA        58.9650   71.7550   76.1980 C.3    84  ASP84       0.1674
     52  C         59.5390   70.4450   76.6600 C.2    84  ASP84       0.2266
     53  O         59.9910   69.6520   75.8350 O.2    84  ASP84      -0.2867
     54  CB        58.3660   71.6180   74.7880 C.3    84  ASP84       0.1410
     55  CG        57.4710   70.4060   74.6250 C.2    84  ASP84       0.3668
     56  OD1       56.9420   69.8960   75.6300 O.co2  84  ASP84      -0.2456
     57  OD2       57.2880   69.9640   73.4680 O.co2  84  ASP84      -0.2456
     58  N         45.2470   58.8140   76.9780 N.3   119  ARG119     -0.1231
     59  CA        45.6700   59.8450   76.0360 C.3   119  ARG119      0.1694
     60  C         46.8420   59.3020   75.2770 C.2   119  ARG119      0.2591
     61  O         46.8140   59.1710   74.0540 O.2   119  ARG119     -0.2718
     62  CB        46.1070   61.1100   76.7470 C.3   119  ARG119      0.0321
     63  CG        44.9420   61.9100   77.2540 C.3   119  ARG119      0.0489
     64  CD        45.3230   63.3580   77.4250 C.3   119  ARG119      0.2205
     65  NE        44.1410   64.1850   77.6490 N.pl3 119  ARG119     -0.0865
     66  CZ        44.1850   65.4860   77.8950 C.cat 119  ARG119      0.5346
     67  NH1       45.3490   66.1080   77.9550 N.pl3 119  ARG119      0.1354
     68  NH2       43.0690   66.1630   78.1050 N.pl3 119  ARG119      0.1354
     69  N         47.8170   58.8540   76.0470 N.am  120  ILE120     -0.1980
     70  CA        49.0550   58.3280   75.5260 C.3   120  ILE120      0.1595
     71  C         48.9690   57.0530   74.6790 C.2   120  ILE120      0.2287
     72  O         49.6380   56.9750   73.6460 O.2   120  ILE120     -0.2864
     73  CB        50.1130   58.2680   76.6840 C.3   120  ILE120      0.0276
     74  CG1       50.7440   59.6530   76.8610 C.3   120  ILE120      0.0022
     75  CG2       51.1700   57.2050   76.4660 C.3   120  ILE120      0.0022
     76  CD1       51.3940   59.8160   78.1880 C.3   120  ILE120      0.0001
     77  N         48.3010   57.9700   71.0490 N.3   123  ARG123     -0.1245
     78  CA        49.1020   59.0700   70.5130 C.3   123  ARG123      0.1563
     79  C         50.0300   58.5770   69.3910 C.2   123  ARG123      0.2260
     80  O         50.7610   57.5720   69.5480 O.2   123  ARG123     -0.2867
     81  CB        49.9480   59.7350   71.5950 C.3   123  ARG123      0.0307
     82  CG        51.0120   60.6620   71.0370 C.3   123  ARG123      0.0489
     83  CD        51.6840   61.4120   72.1480 C.3   123  ARG123      0.2205
     84  NE        52.4760   60.5290   72.9930 N.pl3 123  ARG123     -0.0865
     85  CZ        53.0570   60.9100   74.1340 C.cat 123  ARG123      0.5346
     86  NH1       52.9290   62.1720   74.5540 N.pl3 123  ARG123      0.1354
     87  NH2       53.6900   60.0190   74.9070 N.pl3 123  ARG123      0.1354
     88  N         52.3170   65.9900   66.8710 N.3   132  VAL132     -0.1231
     89  CA        51.6410   64.9670   67.6600 C.3   132  VAL132      0.1692
     90  C         50.0950   64.9250   67.5340 C.2   132  VAL132      0.2592
     91  O         49.4080   65.9490   67.6260 O.2   132  VAL132     -0.2718
     92  CB        52.1270   65.1020   69.1370 C.3   132  VAL132      0.0266
     93  CG1       51.8330   66.5550   69.6880 C.3   132  VAL132      0.0020
     94  CG2       51.5340   63.9980   69.9910 C.3   132  VAL132      0.0020
     95  N         49.5680   63.7310   67.2670 N.am  133  TYR133     -0.1962
     96  CA        48.1310   63.5060   67.0690 C.3   133  TYR133      0.1771
     97  C         47.6040   62.4760   68.0210 C.2   133  TYR133      0.2619
     98  O         48.3510   61.7890   68.6970 O.2   133  TYR133     -0.2715
     99  CB        47.8820   62.9920   65.6420 C.3   133  TYR133      0.0574
    100  CG        48.4000   63.9360   64.5710 C.ar  133  TYR133     -0.0198
    101  CD1       48.7850   65.2300   64.8920 C.ar  133  TYR133     -0.0009
    102  CD2       48.5340   63.5370   63.2740 C.ar  133  TYR133     -0.0009
    103  CE1       49.2940   66.0810   63.9680 C.ar  133  TYR133      0.0417
    104  CE2       49.0380   64.3840   62.3470 C.ar  133  TYR133      0.0417
    105  CZ        49.4070   65.6430   62.7050 C.ar  133  TYR133      0.1957
    106  OH        49.8580   66.3970   61.6910 O.3   133  TYR133     -0.2866
    107  N         46.2970   62.3540   68.0410 N.am  134  HIS134     -0.1973
    108  CA        45.6470   61.3830   68.8830 C.3   134  HIS134      0.1656
    109  C         44.5410   60.8030   68.0140 C.2   134  HIS134      0.2291
    110  O         43.7240   61.5500   67.4680 O.2   134  HIS134     -0.2864
    111  CB        45.0480   62.0470   70.1360 C.3   134  HIS134      0.0771
    112  CG        44.5380   61.0530   71.1260 C.ar  134  HIS134      0.0820
    113  ND1       43.3690   60.3530   70.9270 N.ar  134  HIS134     -0.2267
    114  CD2       45.1320   60.4930   72.2050 C.ar  134  HIS134      0.1154
    115  CE1       43.2830   59.3830   71.8210 C.ar  134  HIS134      0.1986
    116  NE2       44.3380   59.4490   72.6090 N.ar  134  HIS134     -0.2212
    117  N         40.9650   61.9740   70.2210 N.3   137  PHE137     -0.1227
    118  CA        40.8420   63.3730   70.6850 C.3   137  PHE137      0.1736
    119  C         41.3670   64.5200   69.8230 C.2   137  PHE137      0.2595
    120  O         40.9910   65.6970   70.0460 O.2   137  PHE137     -0.2718
    121  CB        41.4230   63.5080   72.1000 C.3   137  PHE137      0.0547
    122  CG        41.0350   62.3910   73.0070 C.ar  137  PHE137     -0.0202
    123  CD1       39.7250   61.9240   73.0220 C.ar  137  PHE137     -0.0042
    124  CD2       41.9820   61.7280   73.7600 C.ar  137  PHE137     -0.0042
    125  CE1       39.3540   60.7960   73.7710 C.ar  137  PHE137     -0.0003
    126  CE2       41.6270   60.5970   74.5160 C.ar  137  PHE137     -0.0003
    127  CZ        40.3000   60.1280   74.5130 C.ar  137  PHE137     -0.0000
    128  N         42.2710   64.2030   68.8930 N.am  138  ASN138     -0.1974
    129  CA        42.8520   65.2090   67.9940 C.3   138  ASN138      0.1688
    130  C         43.5640   64.4310   66.9170 C.2   138  ASN138      0.2292
    131  O         44.7880   64.3110   66.9410 O.2   138  ASN138     -0.2864
    132  CB        43.8480   66.1180   68.7230 C.3   138  ASN138      0.1181
    133  CG        44.3190   67.2850   67.8560 C.2   138  ASN138      0.2629
    134  OD1       45.5060   67.5470   67.7420 O.2   138  ASN138     -0.2716
    135  ND2       43.3830   67.9830   67.2400 N.am  138  ASN138     -0.0877
    136  N         55.1580   56.0570   69.4110 N.3   156  ARG156     -0.1245
    137  CA        56.4290   56.1020   70.1290 C.3   156  ARG156      0.1563
    138  C         56.7210   54.8010   70.8520 C.2   156  ARG156      0.2260
    139  O         55.8290   54.1590   71.3990 O.2   156  ARG156     -0.2867
    140  CB        56.4360   57.2440   71.1350 C.3   156  ARG156      0.0307
    141  CG        56.6720   58.6000   70.5000 C.3   156  ARG156      0.0489
    142  CD        56.4320   59.7140   71.5050 C.3   156  ARG156      0.2205
    143  NE        56.9880   59.4140   72.8280 N.pl3 156  ARG156     -0.0865
    144  CZ        57.0830   60.3150   73.8020 C.cat 156  ARG156      0.5346
    145  NH1       56.6520   61.5500   73.5770 N.pl3 156  ARG156      0.1354
    146  NH2       57.5580   59.9920   75.0040 N.pl3 156  ARG156      0.1354
    147  N         44.2420   71.3350   81.4440 N.3   198  GLY198     -0.1210
    148  CA        44.5560   70.4850   80.3300 C.3   198  GLY198      0.1956
    149  C         43.5320   69.3980   80.0420 C.2   198  GLY198      0.2613
    150  O         43.8510   68.4770   79.2800 O.2   198  GLY198     -0.2717
    151  N         42.3500   69.4230   80.6680 N.am  199  THR199     -0.1938
    152  CA        41.3310   68.3930   80.3520 C.3   199  THR199      0.2028
    153  C         40.4090   68.8840   79.2180 C.2   199  THR199      0.2642
    154  O         39.7830   68.0530   78.5140 O.2   199  THR199     -0.2714
    155  CB        40.4600   68.0070   81.5580 C.3   199  THR199      0.1808
    156  OG1       39.9160   69.1990   82.1530 O.3   199  THR199     -0.2208
    157  CG2       41.2600   67.2010   82.5650 C.3   199  THR199      0.0379
    158  N         40.3250   70.2280   79.0890 N.am  200  LYS200     -0.1963
    159  CA        39.5320   70.9100   78.0640 C.3   200  LYS200      0.1713
    160  C         39.9270   70.4870   76.6780 C.2   200  LYS200      0.2458
    161  O         41.0060   69.9400   76.4720 O.2   200  LYS200     -0.2730
    162  CB        39.7380   72.4150   78.0870 C.3   200  LYS200      0.0311
    163  CG        38.9160   73.1190   79.0600 C.3   200  LYS200      0.0038
    164  CD        39.1650   74.5970   79.0240 C.3   200  LYS200      0.0206
    165  CE        38.6350   75.1760   80.3370 C.3   200  LYS200      0.1093
    166  NZ        38.9810   76.6010   80.5770 N.3   200  LYS200     -0.1314
    167  N         39.0910   70.8250   75.6870 N.am  201  PRO201     -0.2716
    168  CA        39.3860   70.4650   74.3130 C.3   201  PRO201      0.1536
    169  C         40.5420   71.3010   73.8270 C.2   201  PRO201      0.2598
    170  O         40.6470   72.4770   74.1570 O.2   201  PRO201     -0.2715
    171  CB        38.1010   70.8430   73.5950 C.3   201  PRO201      0.0310
    172  CG        37.0610   70.6410   74.6300 C.3   201  PRO201      0.0237
    173  CD        37.7140   71.3320   75.7840 C.3   201  PRO201      0.0939
    174  N         41.4180   70.6520   73.0720 N.am  202  VAL202     -0.1978
    175  CA        42.5900   71.2570   72.4820 C.3   202  VAL202      0.1596
    176  C         42.3460   72.6890   72.0270 C.2   202  VAL202      0.2287
    177  O         42.9770   73.6320   72.5030 O.2   202  VAL202     -0.2864
    178  CB        43.0380   70.4080   71.3070 C.3   202  VAL202      0.0276
    179  CG1       44.1400   71.0830   70.5720 C.3   202  VAL202      0.0022
    180  CG2       43.4810   69.0040   71.8000 C.3   202  VAL202      0.0022
    181  N         42.0000   74.9370   75.0730 N.3   205  VAL205     -0.1245
    182  CA        43.2280   75.1960   75.8540 C.3   205  VAL205      0.1561
    183  C         44.0380   76.2490   75.0900 C.2   205  VAL205      0.2260
    184  O         44.5770   77.1970   75.6670 O.2   205  VAL205     -0.2867
    185  CB        44.1120   73.9480   76.0390 C.3   205  VAL205      0.0252
    186  CG1       45.2480   74.3050   76.9390 C.3   205  VAL205      0.0019
    187  CG2       43.3250   72.7600   76.5940 C.3   205  VAL205      0.0019
@<TRIPOS>BOND
     1   106   105    1
     2   104   105   ar
     3   104   102   ar
     4   105   103   ar
     5   102   100   ar
     6   103   101   ar
     7   100   101   ar
     8   100    99    1
     9    99    96    1
    10    88    89    1
    11   130   131    2
    12   130   129    1
    13    96    95    1
    14    96    97    1
    15   135   133   am
    16    95    90   am
    17   110   109    2
    18    90    91    2
    19    90    89    1
    20    89    92    1
    21   134   133    2
    22   133   132    1
    23   129   132    1
    24   129   128    1
    25   109   108    1
    26    97   107   am
    27    97    98    2
    28   107   108    1
    29   108   111    1
    30   128   119   am
    31    92    93    1
    32    92    94    1
    33    79    80    2
    34    79    78    1
    35   136   137    1
    36   119   120    2
    37   119   118    1
    38   137   138    1
    39   137   140    1
    40   111   112    1
    41   117   118    1
    42    37    36    2
    43   141   140    1
    44   141   142    1
    45    78    77    1
    46    78    81    1
    47   179   178    1
    48   118   121    1
    49   138   139    2
    50   113   112   ar
    51   113   115   ar
    52    40    38    1
    53    82    81    1
    54    82    83    1
    55   112   114   ar
    56    33    32    2
    57    35    36    1
    58    35    38    1
    59    35    34    1
    60    36    41   am
    61   178   180    1
    62   178   175    1
    63    39    38    1
    64   142   143    1
    65   115   116   ar
    66    44    43    2
    67    32    34   am
    68    32    31    1
    69   176   175    1
    70   176   177    2
    71   121   122    1
    72    83    84    1
    73   114   116   ar
    74    43    42    1
    75   175   174    1
    76    41    42    1
    77    42    45    1
    78   143   144    2
    79    49    47   am
    80    31    30    1
    81    84    85    2
    82   122   123   ar
    83   122   124   ar
    84   123   125   ar
    85   174   169   am
    86    48    47    2
    87    47    46    1
    88    57    55   ar
    89   145   144    1
    90   171   168    1
    91   171   172    1
    92    72    71    2
    93   124   126   ar
    94   125   127   ar
    95   144   146    1
    96   169   170    2
    97   169   168    1
    98    45    46    1
    99    61    60    2
   100    85    86    1
   101    85    87    1
   102   168   167    1
   103    30    23   am
   104   127   126   ar
   105    24    23    2
   106    55    54    1
   107    55    56   ar
   108   172   173    1
   109    71    70    1
   110    54    51    1
   111    23    22    1
   112   181   182    1
   113   183   184    2
   114   183   182    1
   115    60    59    1
   116    60    69   am
   117    70    69    1
   118    70    73    1
   119   167   173    1
   120   167   160   am
   121    20    19    2
   122    53    52    2
   123   182   185    1
   124    59    62    1
   125    59    58    1
   126   185   187    1
   127   185   186    1
   128    19    18    1
   129    19    21   am
   130    18    17    1
   131    50    51    1
   132    51    52    1
   133    22    21    1
   134    22    25    1
   135    75    73    1
   136   161   160    2
   137   160   159    1
   138    73    74    1
   139    62    63    1
   140    74    76    1
   141    63    64    1
   142    25    26    1
   143    17    14   am
   144    64    65    1
   145    65    66    2
   146    66    67    1
   147    66    68    1
   148   159   162    1
   149   159   158    1
   150   162   163    1
   151    11    10    2
   152     9    10    1
   153     9     8    1
   154    14    15    2
   155    14    13    1
   156    10    12   am
   157   154   153    2
   158    26    27    1
   159     8     3   am
   160   164   163    1
   161   164   165    1
   162   158   153   am
   163    28    29    1
   164    28    27    1
   165    12    13    1
   166   153   152    1
   167   150   149    2
   168    13    16    1
   169     3     2    1
   170     3     4    2
   171   149   148    1
   172   149   151   am
   173   148   147    1
   174   165   166    1
   175   152   151    1
   176   152   155    1
   177     2     5    1
   178     2     1    1
   179     5     6    1
   180   155   156    1
   181   155   157    1
   182     1     7    1
   183     6     7    1
