@<TRIPOS>MOLECULE
tmp/2eckB00.pdb
 179 167 0 0 0
SMALL
GASTEIGER

@<TRIPOS>ATOM
      1  N         53.1200   63.6000   81.9460 N.3     9  PRO9       -0.2116
      2  CA        53.2440   63.0210   80.6110 C.3     9  PRO9        0.1372
      3  C         51.8350   62.8800   80.0070 C.2     9  PRO9        0.2244
      4  O         50.9160   62.3570   80.6540 O.2     9  PRO9       -0.2868
      5  CB        53.8250   61.6380   80.9080 C.3     9  PRO9        0.0268
      6  CG        54.6990   61.8930   82.0740 C.3     9  PRO9        0.0207
      7  CD        53.8270   62.7810   82.9410 C.3     9  PRO9        0.0892
      8  N         51.4250   68.9600   76.4100 N.3    13  LYS13      -0.1245
      9  CA        52.3980   70.0580   76.3910 C.3    13  LYS13       0.1561
     10  C         52.8820   70.2790   74.9780 C.2    13  LYS13       0.2260
     11  O         52.9520   71.4250   74.5160 O.2    13  LYS13      -0.2867
     12  CB        53.5990   69.7430   77.2680 C.3    13  LYS13       0.0271
     13  CG        53.2410   69.4610   78.7010 C.3    13  LYS13       0.0035
     14  CD        54.4830   69.3820   79.5220 C.3    13  LYS13       0.0206
     15  CE        55.2880   68.1560   79.1530 C.3    13  LYS13       0.1093
     16  NZ        54.6080   66.8730   79.4720 N.3    13  LYS13      -0.1314
     17  N         62.2400   70.5640   72.4940 N.3    30  SER30      -0.1202
     18  CA        61.7200   69.3720   73.1500 C.3    30  SER30       0.2020
     19  C         62.8100   68.3330   73.3400 C.2    30  SER30       0.2619
     20  O         63.2030   67.6090   72.3930 O.2    30  SER30      -0.2717
     21  CB        60.5900   68.7660   72.3380 C.3    30  SER30       0.2103
     22  OG        60.1170   67.5760   72.9470 O.3    30  SER30      -0.2182
     23  N         63.2360   68.2240   74.5930 N.am   31  THR31      -0.1938
     24  CA        64.3060   67.3210   74.9530 C.3    31  THR31       0.2028
     25  C         64.0460   65.9090   74.5120 C.2    31  THR31       0.2642
     26  O         64.9190   65.2590   73.9490 O.2    31  THR31      -0.2714
     27  CB        64.5310   67.3300   76.4320 C.3    31  THR31       0.1808
     28  OG1       63.3870   66.7640   77.0670 O.3    31  THR31      -0.2208
     29  CG2       64.7390   68.7610   76.9200 C.3    31  THR31       0.0379
     30  N         62.8450   65.4290   74.7400 N.am   32  GLY32      -0.1954
     31  CA        62.5340   64.0690   74.3470 C.3    32  GLY32       0.1869
     32  C         62.6290   63.9160   72.8500 C.2    32  GLY32       0.2309
     33  O         62.9670   62.8450   72.3360 O.2    32  GLY32      -0.2863
     34  N         66.2440   63.7130   72.0610 N.3    35  LEU35      -0.1231
     35  CA        66.7590   62.4260   72.4900 C.3    35  LEU35       0.1693
     36  C         66.3910   61.3730   71.4550 C.2    35  LEU35       0.2591
     37  O         67.2430   60.6130   71.0000 O.2    35  LEU35      -0.2718
     38  CB        66.1870   62.0290   73.8690 C.3    35  LEU35       0.0284
     39  CG        66.6210   62.7680   75.1480 C.3    35  LEU35       0.0019
     40  CD1       65.9450   62.1090   76.3670 C.3    35  LEU35       0.0001
     41  CD2       68.1570   62.7350   75.3030 C.3    35  LEU35       0.0001
     42  N         65.1280   61.3550   71.0480 N.am   36  ARG36      -0.1980
     43  CA        64.6850   60.3550   70.0870 C.3    36  ARG36       0.1597
     44  C         65.3750   60.4620   68.7370 C.2    36  ARG36       0.2287
     45  O         65.6530   59.4400   68.1210 O.2    36  ARG36      -0.2864
     46  CB        63.1680   60.3930   69.9350 C.3    36  ARG36       0.0334
     47  CG        62.4130   59.7610   71.1010 C.3    36  ARG36       0.0492
     48  CD        60.9170   59.6680   70.8230 C.3    36  ARG36       0.2205
     49  NE        60.3030   60.9900   70.7740 N.pl3  36  ARG36      -0.0865
     50  CZ        60.0260   61.7160   71.8510 C.cat  36  ARG36       0.5346
     51  NH1       60.3020   61.2400   73.0530 N.pl3  36  ARG36       0.1354
     52  NH2       59.4930   62.9250   71.7290 N.pl3  36  ARG36       0.1354
     53  N         64.9840   55.6390   78.1710 N.3    53  MET53      -0.1245
     54  CA        63.6940   56.0960   77.6200 C.3    53  MET53       0.1570
     55  C         62.6860   55.0040   77.4570 C.2    53  MET53       0.2261
     56  O         61.5140   55.1960   77.8100 O.2    53  MET53      -0.2867
     57  CB        63.8450   56.7230   76.2430 C.3    53  MET53       0.0387
     58  CG        64.4870   58.0740   76.2780 C.3    53  MET53       0.0595
     59  SD        64.5090   58.8500   74.6610 S.3    53  MET53      -0.1393
     60  CE        64.8410   57.4660   73.5620 C.3    53  MET53       0.0692
     61  N         61.2170   53.9960   80.7590 N.3    56  GLY56      -0.1210
     62  CA        60.3550   54.9400   81.4300 C.3    56  GLY56       0.1956
     63  C         61.1190   55.8210   82.3640 C.2    56  GLY56       0.2612
     64  O         60.5710   56.8190   82.8740 O.2    56  GLY56      -0.2717
     65  N         62.3900   55.4790   82.5700 N.am   57  LYS57      -0.1965
     66  CA        63.2480   56.2470   83.4650 C.3    57  LYS57       0.1728
     67  C         63.7460   57.5390   82.8640 C.2    57  LYS57       0.2616
     68  O         63.8970   57.6580   81.6440 O.2    57  LYS57      -0.2715
     69  CB        64.4470   55.4350   83.8830 C.3    57  LYS57       0.0311
     70  CG        64.1150   54.2130   84.6660 C.3    57  LYS57       0.0038
     71  CD        65.3990   53.4330   84.8730 C.3    57  LYS57       0.0206
     72  CE        65.2070   52.2750   85.8530 C.3    57  LYS57       0.1093
     73  NZ        66.4680   51.4890   86.0690 N.3    57  LYS57      -0.1314
     74  N         63.9960   58.5060   83.7340 N.am   58  LEU58      -0.1963
     75  CA        64.5230   59.7730   83.2940 C.3    58  LEU58       0.1728
     76  C         66.0070   59.5760   82.9080 C.2    58  LEU58       0.2616
     77  O         66.6910   58.7110   83.4560 O.2    58  LEU58      -0.2715
     78  CB        64.4290   60.8050   84.4140 C.3    58  LEU58       0.0311
     79  CG        63.0850   61.4040   84.8040 C.3    58  LEU58       0.0022
     80  CD1       63.3470   62.4560   85.8730 C.3    58  LEU58       0.0001
     81  CD2       62.4180   62.0250   83.5950 C.3    58  LEU58       0.0001
     82  N         66.4820   60.3490   81.9350 N.am   59  VAL59      -0.1977
     83  CA        67.8660   60.2530   81.5050 C.3    59  VAL59       0.1596
     84  C         68.6550   61.1970   82.4230 C.2    59  VAL59       0.2287
     85  O         68.0750   62.1360   82.9920 O.2    59  VAL59      -0.2864
     86  CB        67.9890   60.5910   79.9780 C.3    59  VAL59       0.0276
     87  CG1       69.3560   61.0840   79.6050 C.3    59  VAL59       0.0022
     88  CG2       67.7030   59.3510   79.1650 C.3    59  VAL59       0.0022
     89  N         71.2810   65.6960   79.2630 N.3    64  VAL64      -0.1245
     90  CA        70.2460   66.5820   78.7680 C.3    64  VAL64       0.1561
     91  C         70.5810   68.0640   78.8930 C.2    64  VAL64       0.2260
     92  O         70.2770   68.8560   77.9940 O.2    64  VAL64      -0.2867
     93  CB        68.8890   66.2720   79.4290 C.3    64  VAL64       0.0252
     94  CG1       67.9160   67.3760   79.1440 C.3    64  VAL64       0.0019
     95  CG2       68.3240   64.9110   78.9190 C.3    64  VAL64       0.0019
     96  N         60.0580   72.6800   76.1230 N.3    84  ASP84      -0.1225
     97  CA        58.9650   71.7550   76.1980 C.3    84  ASP84       0.1805
     98  C         59.5390   70.4450   76.6600 C.2    84  ASP84       0.2598
     99  O         59.9910   69.6520   75.8350 O.2    84  ASP84      -0.2718
    100  CB        58.3660   71.6180   74.7880 C.3    84  ASP84       0.1424
    101  CG        57.4710   70.4060   74.6250 C.2    84  ASP84       0.3668
    102  OD1       56.9420   69.8960   75.6300 O.co2  84  ASP84      -0.2456
    103  OD2       57.2880   69.9640   73.4680 O.co2  84  ASP84      -0.2456
    104  N         59.5510   70.2320   77.9770 N.am   85  GLY85      -0.1942
    105  CA        60.0680   68.9820   78.5380 C.3    85  GLY85       0.2014
    106  C         61.3620   69.1650   79.3100 C.2    85  GLY85       0.2638
    107  O         62.0950   68.2210   79.5830 O.2    85  GLY85      -0.2714
    108  N         61.6060   70.4040   79.7080 N.am   86  PHE86      -0.1973
    109  CA        62.8160   70.7580   80.4120 C.3    86  PHE86       0.1639
    110  C         62.5730   72.1370   81.0410 C.2    86  PHE86       0.2290
    111  O         62.0630   73.0560   80.3790 O.2    86  PHE86      -0.2864
    112  CB        63.9890   70.8360   79.4110 C.3    86  PHE86       0.0560
    113  CG        65.2800   71.3670   80.0120 C.ar   86  PHE86      -0.0200
    114  CD1       65.5200   72.7490   80.1020 C.ar   86  PHE86      -0.0042
    115  CD2       66.2490   70.4890   80.4990 C.ar   86  PHE86      -0.0042
    116  CE1       66.7070   73.2520   80.6840 C.ar   86  PHE86      -0.0003
    117  CE2       67.4210   70.9760   81.0740 C.ar   86  PHE86      -0.0003
    118  CZ        67.6540   72.3650   81.1610 C.ar   86  PHE86      -0.0000
    119  N         63.1820   69.0570   84.0710 N.3    88  ARG88      -0.1245
    120  CA        62.4410   67.8980   84.4950 C.3    88  ARG88       0.1563
    121  C         62.8670   67.6080   85.9300 C.2    88  ARG88       0.2260
    122  O         62.4080   66.6280   86.5360 O.2    88  ARG88      -0.2867
    123  CB        62.8700   66.7370   83.6190 C.3    88  ARG88       0.0307
    124  CG        61.8660   65.6570   83.4230 C.3    88  ARG88       0.0489
    125  CD        60.8270   66.0480   82.4030 C.3    88  ARG88       0.2205
    126  NE        60.0690   64.8640   82.0290 N.pl3  88  ARG88      -0.0865
    127  CZ        59.8200   64.5210   80.7770 C.cat  88  ARG88       0.5346
    128  NH1       60.2560   65.2980   79.7920 N.pl3  88  ARG88       0.1354
    129  NH2       59.2090   63.3690   80.5170 N.pl3  88  ARG88       0.1354
    130  N         68.3590   70.2700   87.0710 N.3    92  GLN92      -0.1245
    131  CA        68.1770   70.8240   85.7370 C.3    92  GLN92       0.1566
    132  C         67.6960   72.2630   85.8170 C.2    92  GLN92       0.2260
    133  O         68.1730   73.1200   85.0830 O.2    92  GLN92      -0.2867
    134  CB        67.1940   69.9780   84.9140 C.3    92  GLN92       0.0367
    135  CG        67.6970   68.5700   84.5980 C.3    92  GLN92       0.0905
    136  CD        66.7780   67.8040   83.6720 C.2    92  GLN92       0.2608
    137  OE1       66.0460   68.4020   82.8850 O.2    92  GLN92      -0.2717
    138  NE2       66.8620   66.4650   83.7140 N.am   92  GLN92      -0.0878
    139  N         48.3010   57.9700   71.0490 N.3   123  ARG123     -0.1245
    140  CA        49.1020   59.0700   70.5130 C.3   123  ARG123      0.1563
    141  C         50.0300   58.5770   69.3910 C.2   123  ARG123      0.2260
    142  O         50.7610   57.5720   69.5480 O.2   123  ARG123     -0.2867
    143  CB        49.9480   59.7350   71.5950 C.3   123  ARG123      0.0307
    144  CG        51.0120   60.6620   71.0370 C.3   123  ARG123      0.0489
    145  CD        51.6840   61.4120   72.1480 C.3   123  ARG123      0.2205
    146  NE        52.4760   60.5290   72.9930 N.pl3 123  ARG123     -0.0865
    147  CZ        53.0570   60.9100   74.1340 C.cat 123  ARG123      0.5346
    148  NH1       52.9290   62.1720   74.5540 N.pl3 123  ARG123      0.1354
    149  NH2       53.6900   60.0190   74.9070 N.pl3 123  ARG123      0.1354
    150  N         55.1580   56.0570   69.4110 N.3   156  ARG156     -0.1245
    151  CA        56.4290   56.1020   70.1290 C.3   156  ARG156      0.1563
    152  C         56.7210   54.8010   70.8520 C.2   156  ARG156      0.2260
    153  O         55.8290   54.1590   71.3990 O.2   156  ARG156     -0.2867
    154  CB        56.4360   57.2440   71.1350 C.3   156  ARG156      0.0307
    155  CG        56.6720   58.6000   70.5000 C.3   156  ARG156      0.0489
    156  CD        56.4320   59.7140   71.5050 C.3   156  ARG156      0.2205
    157  NE        56.9880   59.4140   72.8280 N.pl3 156  ARG156     -0.0865
    158  CZ        57.0830   60.3150   73.8020 C.cat 156  ARG156      0.5346
    159  NH1       56.6520   61.5500   73.5770 N.pl3 156  ARG156      0.1354
    160  NH2       57.5580   59.9920   75.0040 N.pl3 156  ARG156      0.1354
    161  N         58.0890   54.2900   73.6870 N.3   158  ASP158     -0.1239
    162  CA        57.7800   54.3220   75.1030 C.3   158  ASP158      0.1674
    163  C         56.2750   54.5550   75.4230 C.2   158  ASP158      0.2266
    164  O         55.8890   54.7740   76.5790 O.2   158  ASP158     -0.2867
    165  CB        58.6960   55.3250   75.8080 C.3   158  ASP158      0.1410
    166  CG        58.4990   56.7710   75.3400 C.2   158  ASP158      0.3668
    167  OD1       57.6580   57.0570   74.4600 O.co2 158  ASP158     -0.2456
    168  OD2       59.1870   57.6510   75.8960 O.co2 158  ASP158     -0.2456
    169  N         56.5050   56.0420   84.1520 N.3   167  ARG167     -0.1245
    170  CA        56.7070   57.4300   83.7780 C.3   167  ARG167      0.1563
    171  C         56.0170   58.3640   84.7500 C.2   167  ARG167      0.2260
    172  O         56.6050   59.3680   85.2090 O.2   167  ARG167     -0.2867
    173  CB        56.1580   57.6980   82.3530 C.3   167  ARG167      0.0307
    174  CG        57.0020   57.2220   81.1530 C.3   167  ARG167      0.0489
    175  CD        57.3940   58.4440   80.2600 C.3   167  ARG167      0.2205
    176  NE        56.4960   58.7420   79.1370 N.pl3 167  ARG167     -0.0865
    177  CZ        56.0460   57.8200   78.2820 C.cat 167  ARG167      0.5346
    178  NH1       56.4250   56.5510   78.4340 N.pl3 167  ARG167      0.1354
    179  NH2       55.2010   58.1460   77.2940 N.pl3 167  ARG167      0.1354
@<TRIPOS>BOND
     1    45    44    2
     2    44    43    1
     3   141   142    2
     4   141   140    1
     5   150   151    1
     6    46    43    1
     7    46    47    1
     8    43    42    1
     9   151   152    1
    10   151   154    1
    11   155   154    1
    12   155   156    1
    13   140   139    1
    14   140   143    1
    15    49    48    1
    16    49    50    2
    17    48    47    1
    18   152   153    2
    19    37    36    2
    20   144   143    1
    21   144   145    1
    22    42    36   am
    23    36    35    1
    24   156   157    1
    25    52    50    1
    26    50    51    1
    27    34    35    1
    28   145   146    1
    29    33    32    2
    30    21    22    1
    31    21    18    1
    32    20    19    2
    33    35    38    1
    34    17    18    1
    35   157   158    2
    36    32    31    1
    37   146   147    2
    38    18    19    1
    39    19    23   am
    40   103   101   ar
    41    60    59    1
    42   159   158    1
    43   161   162    1
    44   158   160    1
    45    38    39    1
    46    26    25    2
    47   147   148    1
    48   147   149    1
    49    31    30    1
    50   167   166   ar
    51    25    30   am
    52    25    24    1
    53    11    10    2
    54    23    24    1
    55   101   100    1
    56   101   102   ar
    57    59    58    1
    58   100    97    1
    59    24    27    1
    60    10     9    1
    61   162   163    1
    62   162   165    1
    63    39    41    1
    64    39    40    1
    65   166   165    1
    66   166   168   ar
    67   163   164    2
    68    99    98    2
    69    96    97    1
    70    97    98    1
    71    57    58    1
    72    57    54    1
    73     9     8    1
    74     9    12    1
    75    27    29    1
    76    27    28    1
    77    98   104   am
    78    12    13    1
    79   179   177    1
    80    55    54    1
    81    55    56    2
    82    54    53    1
    83   104   105    1
    84    92    91    2
    85   177   178    1
    86   177   176    2
    87   105   106    1
    88    13    14    1
    89    90    91    1
    90    90    89    1
    91    90    93    1
    92    95    93    1
    93   176   175    1
    94    94    93    1
    95    15    16    1
    96    15    14    1
    97    88    86    1
    98   106   107    2
    99   106   108   am
   100   112   113    1
   101   112   109    1
   102    87    86    1
   103   108   109    1
   104   128   127    1
   105    86    83    1
   106     3     2    1
   107     3     4    2
   108   113   114   ar
   109   113   115   ar
   110   114   116   ar
   111   175   174    1
   112   111   110    2
   113   109   110    1
   114   115   117   ar
   115   129   127    1
   116     2     5    1
   117     2     1    1
   118   116   118   ar
   119    61    62    1
   120   127   126    2
   121     5     6    1
   122   117   118   ar
   123   174   173    1
   124    62    63    1
   125    83    82    1
   126    83    84    1
   127    68    67    2
   128    82    76   am
   129     1     7    1
   130   126   125    1
   131     6     7    1
   132   173   170    1
   133    63    65   am
   134    63    64    2
   135   125   124    1
   136    84    85    2
   137    65    66    1
   138    67    66    1
   139    67    74   am
   140   137   136    2
   141    76    75    1
   142    76    77    2
   143    75    74    1
   144    75    78    1
   145   124   123    1
   146    66    69    1
   147    81    79    1
   148   123   120    1
   149   136   138   am
   150   136   135    1
   151   170   169    1
   152   170   171    1
   153    69    70    1
   154   119   120    1
   155    78    79    1
   156   120   121    1
   157   135   134    1
   158    70    71    1
   159   171   172    2
   160    79    80    1
   161    71    72    1
   162   134   131    1
   163   133   132    2
   164   131   132    1
   165   131   130    1
   166    72    73    1
   167   121   122    2
