@<TRIPOS>MOLECULE
tmp/2ecoA01.pdb
 85 80 0 0 0
SMALL
GASTEIGER

@<TRIPOS>ATOM
      1  N         68.0870   43.6810    6.5710 N.3    40  LYS40      -0.1245
      2  CA        66.9670   42.7920    6.8980 C.3    40  LYS40       0.1561
      3  C         66.2410   43.1540    8.1870 C.2    40  LYS40       0.2260
      4  O         65.1640   42.6300    8.4560 O.2    40  LYS40      -0.2867
      5  CB        67.4230   41.3350    6.9860 C.3    40  LYS40       0.0271
      6  CG        67.8010   40.7090    5.6660 C.3    40  LYS40       0.0035
      7  CD        66.6740   40.8060    4.6340 C.3    40  LYS40       0.0206
      8  CE        66.8530   39.7580    3.5300 C.3    40  LYS40       0.1093
      9  NZ        68.2620   39.7610    3.0680 N.3    40  LYS40      -0.1314
     10  N         65.3090   30.1120    6.9940 N.3    69  THR69      -0.1218
     11  CA        66.4170   31.0130    6.6930 C.3    69  THR69       0.1862
     12  C         67.4590   31.0080    7.7970 C.2    69  THR69       0.2287
     13  O         67.1350   30.8580    8.9770 O.2    69  THR69      -0.2866
     14  CB        65.9510   32.4720    6.5440 C.3    69  THR69       0.1770
     15  OG1       67.0980   33.3250    6.4280 O.3    69  THR69      -0.2211
     16  CG2       65.1580   32.9050    7.7690 C.3    69  THR69       0.0375
     17  N         70.1280   33.2700    7.0420 N.3    71  GLY71      -0.1210
     18  CA        70.7980   34.4900    6.6260 C.3    71  GLY71       0.1956
     19  C         70.4410   35.6890    7.4810 C.2    71  GLY71       0.2612
     20  O         69.9940   35.5380    8.6180 O.2    71  GLY71      -0.2717
     21  N         70.6370   36.8860    6.9350 N.am   72  ASN72      -0.1960
     22  CA        70.3360   38.1060    7.6660 C.3    72  ASN72       0.1819
     23  C         68.8830   38.1870    8.1230 C.2    72  ASN72       0.2621
     24  O         68.5930   38.7650    9.1670 O.2    72  ASN72      -0.2715
     25  CB        70.6870   39.3380    6.8250 C.3    72  ASN72       0.1195
     26  CG        72.1820   39.6110    6.7920 C.2    72  ASN72       0.2630
     27  OD1       72.8760   39.4250    7.7910 O.2    72  ASN72      -0.2716
     28  ND2       72.6820   40.0640    5.6470 N.am   72  ASN72      -0.0877
     29  N         67.9680   37.6200    7.3470 N.am   73  THR73      -0.1951
     30  CA        66.5620   37.6480    7.7380 C.3    73  THR73       0.1897
     31  C         66.3910   36.8630    9.0380 C.2    73  THR73       0.2313
     32  O         65.6360   37.2690    9.9200 O.2    73  THR73      -0.2863
     33  CB        65.6700   37.0510    6.6350 C.3    73  THR73       0.1794
     34  OG1       65.7640   37.8740    5.4690 O.3    73  THR73      -0.2208
     35  CG2       64.2120   36.9980    7.0870 C.3    73  THR73       0.0378
     36  N         59.1940   35.6590    3.7320 N.3   141  GLN141     -0.1231
     37  CA        59.9160   36.8100    3.1980 C.3   141  GLN141      0.1698
     38  C         59.9150   37.0680    1.6920 C.2   141  GLN141      0.2592
     39  O         60.0010   38.2210    1.2700 O.2   141  GLN141     -0.2718
     40  CB        61.3680   36.7830    3.6880 C.3   141  GLN141      0.0381
     41  CG        62.2420   35.7150    3.0440 C.3   141  GLN141      0.0905
     42  CD        63.7000   35.8670    3.4400 C.2   141  GLN141      0.2608
     43  OE1       64.1940   36.9820    3.5910 O.2   141  GLN141     -0.2717
     44  NE2       64.3950   34.7500    3.6000 N.am  141  GLN141     -0.0878
     45  N         59.8250   36.0240    0.8760 N.am  142  PHE142     -0.1976
     46  CA        59.8540   36.2410   -0.5650 C.3   142  PHE142      0.1639
     47  C         58.5360   36.7100   -1.1720 C.2   142  PHE142      0.2290
     48  O         58.5200   37.2060   -2.2970 O.2   142  PHE142     -0.2864
     49  CB        60.3500   34.9810   -1.2870 C.3   142  PHE142      0.0560
     50  CG        61.8010   34.6750   -1.0260 C.ar  142  PHE142     -0.0200
     51  CD1       62.1720   33.7910   -0.0210 C.ar  142  PHE142     -0.0042
     52  CD2       62.7990   35.3230   -1.7510 C.ar  142  PHE142     -0.0042
     53  CE1       63.5150   33.5540    0.2670 C.ar  142  PHE142     -0.0003
     54  CE2       64.1510   35.0950   -1.4710 C.ar  142  PHE142     -0.0003
     55  CZ        64.5070   34.2090   -0.4600 C.ar  142  PHE142     -0.0000
     56  N         67.5520   40.2970   -3.5410 N.3   175  GLY175     -0.1210
     57  CA        67.4710   39.0320   -2.8370 C.3   175  GLY175      0.1956
     58  C         65.9980   38.6410   -2.8190 C.2   175  GLY175      0.2612
     59  O         65.5460   37.8990   -3.6880 O.2   175  GLY175     -0.2717
     60  N         65.2460   39.1510   -1.8440 N.am  176  THR176     -0.1952
     61  CA        63.8110   38.8680   -1.7580 C.3   176  THR176      0.1897
     62  C         63.0640   39.7780   -2.7300 C.2   176  THR176      0.2313
     63  O         61.9130   39.5210   -3.0760 O.2   176  THR176     -0.2863
     64  CB        63.2310   39.1430   -0.3450 C.3   176  THR176      0.1794
     65  OG1       63.3700   40.5370   -0.0290 O.3   176  THR176     -0.2208
     66  CG2       63.9360   38.3010    0.7070 C.3   176  THR176      0.0378
     67  N         73.3610   36.5830    0.6030 N.3   219  GLY219     -0.1210
     68  CA        72.2630   37.5060    0.8160 C.3   219  GLY219      0.1956
     69  C         71.5150   37.9480   -0.4250 C.2   219  GLY219      0.2611
     70  O         70.3730   38.3910   -0.3220 O.2   219  GLY219     -0.2717
     71  N         72.1440   37.8510   -1.5930 N.am  220  MET220     -0.1979
     72  CA        71.4830   38.2420   -2.8370 C.3   220  MET220      0.1605
     73  C         71.5560   37.1090   -3.8560 C.2   220  MET220      0.2287
     74  O         72.2790   36.1360   -3.6540 O.2   220  MET220     -0.2864
     75  CB        72.1260   39.5040   -3.4280 C.3   220  MET220      0.0413
     76  CG        73.5900   39.3520   -3.8290 C.3   220  MET220      0.0598
     77  SD        74.2470   40.8280   -4.6560 S.3   220  MET220     -0.1393
     78  CE        73.7970   40.4950   -6.3370 C.3   220  MET220      0.0692
     79  N         68.9960   34.7670   -5.1910 N.3   222  PRO222     -0.2116
     80  CA        68.3770   33.5310   -4.7020 C.3   222  PRO222      0.1372
     81  C         68.2240   32.4140   -5.7390 C.2   222  PRO222      0.2244
     82  O         67.8910   31.2870   -5.3850 O.2   222  PRO222     -0.2868
     83  CB        67.0300   34.0140   -4.1760 C.3   222  PRO222      0.0268
     84  CG        66.6810   35.0950   -5.1510 C.3   222  PRO222      0.0207
     85  CD        67.9950   35.8460   -5.3010 C.3   222  PRO222      0.0892
@<TRIPOS>BOND
     1    78    77    1
     2    81    82    2
     3    81    80    1
     4    85    79    1
     5    85    84    1
     6    79    80    1
     7    84    83    1
     8    80    83    1
     9    77    76    1
    10    73    74    2
    11    73    72    1
    12    76    75    1
    13    59    58    2
    14    56    57    1
    15    75    72    1
    16    63    62    2
    17    57    58    1
    18    72    71    1
    19    58    60   am
    20    62    61    1
    21    48    47    2
    22    60    61    1
    23    61    64    1
    24    52    54   ar
    25    52    50   ar
    26    71    69   am
    27    54    55   ar
    28    49    50    1
    29    49    46    1
    30    47    46    1
    31    50    51   ar
    32    46    45    1
    33    55    53   ar
    34    69    70    2
    35    69    68    1
    36    64    65    1
    37    64    66    1
    38    51    53   ar
    39    67    68    1
    40    45    38   am
    41    39    38    2
    42    38    37    1
    43    41    42    1
    44    41    40    1
    45     9     8    1
    46    37    40    1
    47    37    36    1
    48    42    43    2
    49    42    44   am
    50     8     7    1
    51     7     6    1
    52    34    33    1
    53    28    26   am
    54     6     5    1
    55    15    14    1
    56    14    11    1
    57    14    16    1
    58     1     2    1
    59    18    17    1
    60    18    19    1
    61    33    35    1
    62    33    30    1
    63    11    10    1
    64    11    12    1
    65    26    25    1
    66    26    27    2
    67    25    22    1
    68     2     5    1
    69     2     3    1
    70    21    19   am
    71    21    22    1
    72    29    30    1
    73    29    23   am
    74    19    20    2
    75    22    23    1
    76    30    31    1
    77    12    13    2
    78    23    24    2
    79     3     4    2
    80    31    32    2
