@<TRIPOS>MOLECULE
tmp/2ecqA01.pdb
 77 72 0 0 0
SMALL
GASTEIGER

@<TRIPOS>ATOM
      1  N         48.4170   -9.7580   19.8070 N.3    40  LYS40      -0.1245
      2  CA        48.6290  -11.1740   20.1260 C.3    40  LYS40       0.1561
      3  C         47.9710  -11.6410   21.4180 C.2    40  LYS40       0.2260
      4  O         47.9030  -12.8390   21.6740 O.2    40  LYS40      -0.2867
      5  CB        50.1200  -11.5090   20.1810 C.3    40  LYS40       0.0271
      6  CG        50.8300  -11.4630   18.8460 C.3    40  LYS40       0.0035
      7  CD        50.1680  -12.3650   17.8060 C.3    40  LYS40       0.0206
      8  CE        51.1770  -12.7900   16.7400 C.3    40  LYS40       0.1093
      9  NZ        51.9190  -11.5720   16.3310 N.3    40  LYS40      -0.1314
     10  N         58.7600  -18.9260   20.2400 N.3    69  THR69      -0.1218
     11  CA        58.5500  -17.5150   19.9300 C.3    69  THR69       0.1862
     12  C         59.1120  -16.6190   21.0210 C.2    69  THR69       0.2287
     13  O         59.1140  -16.9810   22.1980 O.2    69  THR69      -0.2866
     14  CB        57.0510  -17.1700   19.7900 C.3    69  THR69       0.1770
     15  OG1       56.9040  -15.7550   19.6020 O.3    69  THR69      -0.2211
     16  CG2       56.2860  -17.5700   21.0470 C.3    69  THR69       0.0375
     17  N         58.4320  -13.2020   20.3570 N.3    71  GLY71      -0.1210
     18  CA        57.6900  -12.0110   19.9730 C.3    71  GLY71       0.1956
     19  C         56.4450  -11.7270   20.7930 C.2    71  GLY71       0.2612
     20  O         56.3090  -12.1990   21.9220 O.2    71  GLY71      -0.2717
     21  N         55.5310  -10.9490   20.2200 N.am   72  ASN72      -0.1960
     22  CA        54.2980  -10.5990   20.9090 C.3    72  ASN72       0.1819
     23  C         53.4990  -11.8170   21.3550 C.2    72  ASN72       0.2621
     24  O         52.8360  -11.7770   22.3870 O.2    72  ASN72      -0.2715
     25  CB        53.4280   -9.6870   20.0320 C.3    72  ASN72       0.1195
     26  CG        53.9440   -8.2570   19.9880 C.2    72  ASN72       0.2630
     27  OD1       54.3880   -7.7170   21.0010 O.2    72  ASN72      -0.2716
     28  ND2       53.8730   -7.6330   18.8170 N.am   72  ASN72      -0.0877
     29  N         53.5540  -12.9000   20.5870 N.am   73  THR73      -0.1951
     30  CA        52.8270  -14.1080   20.9680 C.3    73  THR73       0.1897
     31  C         53.4330  -14.6450   22.2640 C.2    73  THR73       0.2313
     32  O         52.7160  -15.0980   23.1540 O.2    73  THR73      -0.2863
     33  CB        52.9090  -15.1830   19.8670 C.3    73  THR73       0.1794
     34  OG1       52.2400  -14.7060   18.6950 O.3    73  THR73      -0.2208
     35  CG2       52.2410  -16.4780   20.3290 C.3    73  THR73       0.0378
     36  N         50.9590  -21.4390   16.9770 N.3   141  GLN141     -0.1231
     37  CA        50.3240  -20.2370   16.4430 C.3   141  GLN141      0.1698
     38  C         50.1090  -20.1050   14.9370 C.2   141  GLN141      0.2592
     39  O         49.1480  -19.4660   14.5120 O.2   141  GLN141     -0.2718
     40  CB        51.0700  -18.9940   16.9420 C.3   141  GLN141      0.0381
     41  CG        52.4190  -18.7490   16.2780 C.3   141  GLN141      0.0905
     42  CD        53.0050  -17.4050   16.6710 C.2   141  GLN141      0.2608
     43  OE1       52.2840  -16.4130   16.7690 O.2   141  GLN141     -0.2717
     44  NE2       54.3130  -17.3640   16.8860 N.am  141  GLN141     -0.0878
     45  N         50.9790  -20.6920   14.1230 N.am  142  PHE142     -0.1976
     46  CA        50.8170  -20.5590   12.6770 C.3   142  PHE142      0.1639
     47  C         49.7860  -21.5000   12.0580 C.2   142  PHE142      0.2290
     48  O         49.3670  -21.2920   10.9190 O.2   142  PHE142     -0.2864
     49  CB        52.1660  -20.7350   11.9650 C.3   142  PHE142      0.0560
     50  CG        53.1400  -19.6190   12.2310 C.ar  142  PHE142     -0.0200
     51  CD1       54.0880  -19.7290   13.2420 C.ar  142  PHE142     -0.0042
     52  CD2       53.0840  -18.4430   11.4890 C.ar  142  PHE142     -0.0042
     53  CE1       54.9680  -18.6820   13.5130 C.ar  142  PHE142     -0.0003
     54  CE2       53.9590  -17.3880   11.7520 C.ar  142  PHE142     -0.0003
     55  CZ        54.9020  -17.5070   12.7670 C.ar  142  PHE142     -0.0000
     56  N         51.1890  -11.9280    9.7400 N.3   175  GLY175     -0.1210
     57  CA        52.2480  -12.6390   10.4360 C.3   175  GLY175      0.1956
     58  C         51.8250  -14.0990   10.4130 C.2   175  GLY175      0.2612
     59  O         52.2130  -14.8440    9.5110 O.2   175  GLY175     -0.2717
     60  N         51.0130  -14.5070   11.3880 N.am  176  THR176     -0.1952
     61  CA        50.5090  -15.8800   11.4480 C.3   176  THR176      0.1897
     62  C         49.3430  -16.0420   10.4760 C.2   176  THR176      0.2313
     63  O         48.9770  -17.1580   10.1130 O.2   176  THR176     -0.2863
     64  CB        49.9700  -16.2530   12.8480 C.3   176  THR176      0.1794
     65  OG1       48.8420  -15.4210   13.1650 O.3   176  THR176     -0.2208
     66  CG2       51.0510  -16.0870   13.9090 C.3   176  THR176      0.0378
     67  N         57.2510   -8.8750   13.9020 N.3   219  GLY219     -0.1225
     68  CA        55.8900   -9.3480   14.0710 C.3   219  GLY219      0.1811
     69  C         55.1550   -9.7380   12.8020 C.2   219  GLY219      0.2280
     70  O         54.2070  -10.5210   12.8630 O.2   219  GLY219     -0.2866
     71  N         56.6420  -13.4690    8.0440 N.3   222  PRO222     -0.2116
     72  CA        57.4010  -14.6240    8.5310 C.3   222  PRO222      0.1372
     73  C         58.2940  -15.3080    7.4940 C.2   222  PRO222      0.2244
     74  O         59.0850  -16.1840    7.8380 O.2   222  PRO222     -0.2868
     75  CB        56.3060  -15.5510    9.0490 C.3   222  PRO222      0.0268
     76  CG        55.1970  -15.3020    8.0760 C.3   222  PRO222      0.0207
     77  CD        55.2060  -13.7890    7.9510 C.3   222  PRO222      0.0892
@<TRIPOS>BOND
     1    73    74    2
     2    73    72    1
     3    77    71    1
     4    77    76    1
     5    71    72    1
     6    76    75    1
     7    72    75    1
     8    59    58    2
     9    56    57    1
    10    63    62    2
    11    58    57    1
    12    58    60   am
    13    62    61    1
    14    48    47    2
    15    60    61    1
    16    61    64    1
    17    52    54   ar
    18    52    50   ar
    19    54    55   ar
    20    49    50    1
    21    49    46    1
    22    47    46    1
    23    50    51   ar
    24    46    45    1
    25    55    53   ar
    26    69    70    2
    27    69    68    1
    28    64    65    1
    29    64    66    1
    30    51    53   ar
    31    67    68    1
    32    45    38   am
    33    39    38    2
    34    38    37    1
    35    41    42    1
    36    41    40    1
    37     9     8    1
    38    37    40    1
    39    37    36    1
    40    42    43    2
    41    42    44   am
    42     8     7    1
    43     7     6    1
    44    34    33    1
    45    28    26   am
    46     6     5    1
    47    15    14    1
    48    14    11    1
    49    14    16    1
    50     1     2    1
    51    33    35    1
    52    33    30    1
    53    11    10    1
    54    11    12    1
    55    18    17    1
    56    18    19    1
    57    26    25    1
    58    26    27    2
    59    25    22    1
    60     2     5    1
    61     2     3    1
    62    21    19   am
    63    21    22    1
    64    29    30    1
    65    29    23   am
    66    19    20    2
    67    22    23    1
    68    30    31    1
    69    12    13    2
    70    23    24    2
    71     3     4    2
    72    31    32    2
