@<TRIPOS>MOLECULE
tmp/2ecuA00.pdb
 86 82 0 0 0
SMALL
GASTEIGER

@<TRIPOS>ATOM
      1  N         26.6650   32.2510   58.6910 N.3     5  PHE5       -0.1227
      2  CA        27.3050   30.9410   58.5710 C.3     5  PHE5        0.1736
      3  C         26.3500   29.8520   59.0590 C.2     5  PHE5        0.2595
      4  O         26.1770   28.8260   58.4020 O.2     5  PHE5       -0.2718
      5  CB        28.6010   30.9410   59.3890 C.3     5  PHE5        0.0547
      6  CG        29.2830   29.6030   59.4790 C.ar    5  PHE5       -0.0202
      7  CD1       29.6660   28.9100   58.3340 C.ar    5  PHE5       -0.0042
      8  CD2       29.5820   29.0570   60.7220 C.ar    5  PHE5       -0.0042
      9  CE1       30.3420   27.6900   58.4320 C.ar    5  PHE5       -0.0003
     10  CE2       30.2540   27.8420   60.8280 C.ar    5  PHE5       -0.0003
     11  CZ        30.6350   27.1590   59.6820 C.ar    5  PHE5       -0.0000
     12  N         25.7190   30.0860   60.2060 N.am    6  LYS6       -0.1980
     13  CA        24.7730   29.1210   60.7520 C.3     6  LYS6        0.1596
     14  C         23.5730   28.9370   59.8290 C.2     6  LYS6        0.2287
     15  O         23.0740   27.8250   59.6700 O.2     6  LYS6       -0.2864
     16  CB        24.2930   29.5690   62.1310 C.3     6  LYS6        0.0298
     17  CG        25.3460   29.4720   63.2090 C.3     6  LYS6        0.0038
     18  CD        24.8030   30.0330   64.5050 C.3     6  LYS6        0.0206
     19  CE        25.8320   29.9820   65.6140 C.3     6  LYS6        0.1093
     20  NZ        25.3100   30.6650   66.8340 N.3     6  LYS6       -0.1314
     21  N         24.5560   26.7310   56.8700 N.3     9  LEU9       -0.1245
     22  CA        24.6250   25.3270   57.2600 C.3     9  LEU9        0.1561
     23  C         23.2390   24.7390   57.4830 C.2     9  LEU9        0.2260
     24  O         23.0140   23.5530   57.2430 O.2     9  LEU9       -0.2867
     25  CB        25.4730   25.1670   58.5200 C.3     9  LEU9        0.0270
     26  CG        26.9500   25.5050   58.3220 C.3     9  LEU9        0.0019
     27  CD1       27.6900   25.4060   59.6330 C.3     9  LEU9        0.0001
     28  CD2       27.5500   24.5550   57.3090 C.3     9  LEU9        0.0001
     29  N         24.2050   11.9230   68.7800 N.3    31  THR31      -0.1203
     30  CA        23.5510   12.2450   67.5200 C.3    31  THR31       0.1994
     31  C         24.4510   13.1620   66.7050 C.2    31  THR31       0.2618
     32  O         25.0340   14.1050   67.2370 O.2    31  THR31      -0.2717
     33  CB        22.1980   12.9370   67.7710 C.3    31  THR31       0.1784
     34  OG1       21.3360   12.0320   68.4670 O.3    31  THR31      -0.2211
     35  CG2       21.5400   13.3470   66.4540 C.3    31  THR31       0.0376
     36  N         24.5780   12.8720   65.4140 N.am   32  ALA32      -0.1965
     37  CA        25.4060   13.6930   64.5460 C.3    32  ALA32       0.1728
     38  C         24.8780   13.7630   63.1230 C.2    32  ALA32       0.2617
     39  O         24.4850   12.7500   62.5400 O.2    32  ALA32      -0.2715
     40  CB        26.8370   13.1600   64.5260 C.3    32  ALA32       0.0334
     41  N         24.8610   14.9710   62.5730 N.am   33  THR33      -0.1937
     42  CA        24.4560   15.1730   61.1900 C.3    33  THR33       0.2028
     43  C         25.7410   15.3480   60.3820 C.2    33  THR33       0.2642
     44  O         25.7440   15.2030   59.1610 O.2    33  THR33      -0.2714
     45  CB        23.5810   16.4260   61.0170 C.3    33  THR33       0.1808
     46  OG1       24.1290   17.5010   61.7840 O.3    33  THR33      -0.2208
     47  CG2       22.1550   16.1470   61.4610 C.3    33  THR33       0.0379
     48  N         26.8350   15.6490   61.0810 N.am   34  ALA34      -0.1977
     49  CA        28.1380   15.8370   60.4480 C.3    34  ALA34       0.1597
     50  C         28.7780   14.4780   60.1650 C.2    34  ALA34       0.2287
     51  O         29.6560   14.0130   60.8990 O.2    34  ALA34      -0.2864
     52  CB        29.0420   16.6750   61.3470 C.3    34  ALA34       0.0319
     53  N         32.3040   14.5950   62.3500 N.3    48  ALA48      -0.1245
     54  CA        32.7840   15.6860   63.1820 C.3    48  ALA48       0.1562
     55  C         32.2270   15.4460   64.5740 C.2    48  ALA48       0.2260
     56  O         31.0150   15.3710   64.7600 O.2    48  ALA48      -0.2867
     57  CB        32.3000   17.0230   62.6420 C.3    48  ALA48       0.0290
     58  N         36.7160   23.4330   66.8010 N.3   115  ASP115     -0.1225
     59  CA        36.1300   23.0330   68.0720 C.3   115  ASP115      0.1805
     60  C         35.5880   21.6030   68.0160 C.2   115  ASP115      0.2597
     61  O         34.9560   21.1270   68.9570 O.2   115  ASP115     -0.2718
     62  CB        35.0380   24.0170   68.5310 C.3   115  ASP115      0.1424
     63  CG        33.9630   24.2570   67.4880 C.2   115  ASP115      0.3668
     64  OD1       33.6300   23.3250   66.7280 O.co2 115  ASP115     -0.2456
     65  OD2       33.4280   25.3870   67.4510 O.co2 115  ASP115     -0.2456
     66  N         35.8490   20.9280   66.8980 N.am  116  HIS116     -0.1975
     67  CA        35.4520   19.5340   66.7050 C.3   116  HIS116      0.1656
     68  C         36.6730   18.7530   66.2460 C.2   116  HIS116      0.2291
     69  O         37.6740   19.3340   65.8310 O.2   116  HIS116     -0.2864
     70  CB        34.3710   19.3940   65.6290 C.3   116  HIS116      0.0771
     71  CG        32.9890   19.6930   66.1110 C.ar  116  HIS116      0.0820
     72  ND1       32.6180   20.9290   66.5920 N.ar  116  HIS116     -0.2267
     73  CD2       31.8870   18.9100   66.1950 C.ar  116  HIS116      0.1154
     74  CE1       31.3480   20.8950   66.9530 C.ar  116  HIS116      0.1986
     75  NE2       30.8810   19.6810   66.7230 N.ar  116  HIS116     -0.2212
     76  N         16.6740   23.7230   60.7940 N.3   140  ARG140     -0.1245
     77  CA        16.3950   23.5360   62.2110 C.3   140  ARG140      0.1563
     78  C         15.1510   22.7220   62.5510 C.2   140  ARG140      0.2260
     79  O         14.4090   23.0540   63.4780 O.2   140  ARG140     -0.2867
     80  CB        16.3290   24.9120   62.8850 C.3   140  ARG140      0.0307
     81  CG        17.5220   25.8010   62.5390 C.3   140  ARG140      0.0489
     82  CD        17.4100   27.1880   63.1540 C.3   140  ARG140      0.2205
     83  NE        18.5650   28.0230   62.8240 N.pl3 140  ARG140     -0.0865
     84  CZ        18.8010   28.5480   61.6240 C.cat 140  ARG140      0.5346
     85  NH1       17.9590   28.3350   60.6210 N.pl3 140  ARG140      0.1354
     86  NH2       19.8860   29.2850   61.4270 N.pl3 140  ARG140      0.1354
@<TRIPOS>BOND
     1    21    22    1
     2    24    23    2
     3    22    23    1
     4    22    25    1
     5    28    26    1
     6    26    25    1
     7    26    27    1
     8     7     9   ar
     9     7     6   ar
    10     4     3    2
    11     9    11   ar
    12     2     1    1
    13     2     3    1
    14     2     5    1
    15     3    12   am
    16    44    43    2
    17     5     6    1
    18     6     8   ar
    19    15    14    2
    20    11    10   ar
    21    14    13    1
    22    50    49    1
    23    50    51    2
    24    12    13    1
    25    43    48   am
    26    43    42    1
    27    49    48    1
    28    49    52    1
    29    85    84    1
    30     8    10   ar
    31    13    16    1
    32    76    77    1
    33    45    42    1
    34    45    47    1
    35    45    46    1
    36    42    41    1
    37    86    84    1
    38    84    83    2
    39    16    17    1
    40    77    78    1
    41    77    80    1
    42    53    54    1
    43    81    80    1
    44    81    82    1
    45    39    38    2
    46    78    79    2
    47    41    38   am
    48    57    54    1
    49    83    82    1
    50    38    37    1
    51    54    55    1
    52    17    18    1
    53    18    19    1
    54    40    37    1
    55    37    36    1
    56    55    56    2
    57    36    31   am
    58    19    20    1
    59    70    71    1
    60    70    67    1
    61    69    68    2
    62    71    73   ar
    63    71    72   ar
    64    73    75   ar
    65    68    67    1
    66    35    33    1
    67    72    74   ar
    68    31    32    2
    69    31    30    1
    70    67    66    1
    71    75    74   ar
    72    64    63   ar
    73    58    59    1
    74    66    60   am
    75    65    63   ar
    76    63    62    1
    77    30    33    1
    78    30    29    1
    79    33    34    1
    80    60    59    1
    81    60    61    2
    82    59    62    1
