@<TRIPOS>MOLECULE
tmp/2ecuB00.pdb
 141 135 0 0 0
SMALL
GASTEIGER

@<TRIPOS>ATOM
      1  N         28.4400   -1.7100   51.7150 N.3     5  PHE5       -0.1227
      2  CA        28.9560   -0.4000   52.1040 C.3     5  PHE5        0.1736
      3  C         28.3350    0.6870   51.2220 C.2     5  PHE5        0.2595
      4  O         27.8680    1.7140   51.7180 O.2     5  PHE5       -0.2718
      5  CB        30.4860   -0.4010   51.9730 C.3     5  PHE5        0.0547
      6  CG        31.1330    0.9340   52.2280 C.ar    5  PHE5       -0.0202
      7  CD1       30.8860    1.6430   53.3990 C.ar    5  PHE5       -0.0042
      8  CD2       32.0220    1.4670   51.2980 C.ar    5  PHE5       -0.0042
      9  CE1       31.5210    2.8660   53.6410 C.ar    5  PHE5       -0.0003
     10  CE2       32.6590    2.6840   51.5310 C.ar    5  PHE5       -0.0003
     11  CZ        32.4080    3.3830   52.7040 C.ar    5  PHE5       -0.0000
     12  N         28.3130    0.4490   49.9160 N.am    6  LYS6       -0.1980
     13  CA        27.7380    1.4170   48.9920 C.3     6  LYS6        0.1596
     14  C         26.2420    1.5930   49.2370 C.2     6  LYS6        0.2287
     15  O         25.7140    2.6960   49.1150 O.2     6  LYS6       -0.2864
     16  CB        27.9790    0.9880   47.5460 C.3     6  LYS6        0.0298
     17  CG        29.4360    1.0080   47.1170 C.3     6  LYS6        0.0038
     18  CD        29.5670    0.4890   45.6930 C.3     6  LYS6        0.0206
     19  CE        31.0140    0.4200   45.2460 C.3     6  LYS6        0.1093
     20  NZ        31.1220   -0.2030   43.8960 N.3     6  LYS6       -0.1314
     21  N         25.7330    3.7920   52.3190 N.3     9  LEU9       -0.1245
     22  CA        25.9740    5.1940   51.9980 C.3     9  LEU9        0.1561
     23  C         24.8230    5.7730   51.1840 C.2     9  LEU9        0.2260
     24  O         24.4980    6.9540   51.3090 O.2     9  LEU9       -0.2867
     25  CB        27.2900    5.3500   51.2330 C.3     9  LEU9        0.0270
     26  CG        28.5460    4.9240   51.9940 C.3     9  LEU9        0.0019
     27  CD1       29.7640    5.0820   51.1050 C.3     9  LEU9        0.0001
     28  CD2       28.6830    5.7610   53.2470 C.3     9  LEU9        0.0001
     29  N         23.2030   18.6810   48.0240 N.3    16  VAL16      -0.1245
     30  CA        24.1780   18.5390   46.9550 C.3    16  VAL16       0.1561
     31  C         24.8850   19.8740   46.8010 C.2    16  VAL16       0.2260
     32  O         24.2460   20.9260   46.8150 O.2    16  VAL16      -0.2867
     33  CB        23.4870   18.1600   45.6270 C.3    16  VAL16       0.0252
     34  CG1       24.5280   17.9260   44.5410 C.3    16  VAL16       0.0019
     35  CG2       22.6300   16.9120   45.8260 C.3    16  VAL16       0.0019
     36  N         30.7550   18.5770   41.5000 N.3    31  THR31      -0.1203
     37  CA        29.6210   18.2370   42.3490 C.3    31  THR31       0.1994
     38  C         30.0710   17.3360   43.4870 C.2    31  THR31       0.2618
     39  O         30.8590   16.4170   43.2830 O.2    31  THR31      -0.2717
     40  CB        28.5330   17.5270   41.5380 C.3    31  THR31       0.1784
     41  OG1       28.0770   18.4110   40.5090 O.3    31  THR31      -0.2211
     42  CG2       27.3600   17.1440   42.4270 C.3    31  THR31       0.0376
     43  N         29.5820   17.6150   44.6900 N.am   32  ALA32      -0.1965
     44  CA        29.9420   16.8130   45.8440 C.3    32  ALA32       0.1728
     45  C         28.8250   16.7480   46.8690 C.2    32  ALA32       0.2617
     46  O         28.2140   17.7670   47.2020 O.2    32  ALA32      -0.2715
     47  CB        31.2000   17.3780   46.5030 C.3    32  ALA32       0.0334
     48  N         28.5520   15.5460   47.3620 N.am   33  THR33      -0.1937
     49  CA        27.5640   15.3600   48.4130 C.3    33  THR33       0.2028
     50  C         28.3380   15.2070   49.7250 C.2    33  THR33       0.2642
     51  O         27.7710   15.3760   50.8030 O.2    33  THR33      -0.2714
     52  CB        26.7070   14.1060   48.1960 C.3    33  THR33       0.1808
     53  OG1       27.5420   13.0350   47.7480 O.3    33  THR33      -0.2208
     54  CG2       25.6100   14.3740   47.1780 C.3    33  THR33       0.0379
     55  N         29.6340   14.9070   49.6230 N.am   34  ALA34      -0.1977
     56  CA        30.4930   14.7310   50.7960 C.3    34  ALA34       0.1597
     57  C         30.9280   16.0950   51.3250 C.2    34  ALA34       0.2287
     58  O         32.0380   16.5690   51.0540 O.2    34  ALA34      -0.2864
     59  CB        31.7140   13.8910   50.4340 C.3    34  ALA34       0.0319
     60  N         35.0340   15.9480   51.0390 N.3    48  ALA48      -0.1245
     61  CA        35.8820   14.8870   50.5110 C.3    48  ALA48       0.1562
     62  C         35.9730   15.1000   49.0110 C.2    48  ALA48       0.2260
     63  O         34.9530   15.1100   48.3240 O.2    48  ALA48      -0.2867
     64  CB        35.2790   13.5210   50.8120 C.3    48  ALA48       0.0290
     65  N         23.8860   20.0210   39.1170 N.3    78  SER78      -0.1202
     66  CA        24.5480   18.9010   39.7740 C.3    78  SER78       0.2020
     67  C         25.1110   17.9450   38.7250 C.2    78  SER78       0.2618
     68  O         26.2700   17.5480   38.7920 O.2    78  SER78      -0.2717
     69  CB        23.5560   18.1560   40.6740 C.3    78  SER78       0.2103
     70  OG        24.1500   17.0060   41.2490 O.3    78  SER78      -0.2182
     71  N         24.2810   17.5810   37.7540 N.am   79  GLU79      -0.1979
     72  CA        24.7020   16.6740   36.6970 C.3    79  GLU79       0.1602
     73  C         25.8760   17.2330   35.9040 C.2    79  GLU79       0.2287
     74  O         26.8540   16.5300   35.6430 O.2    79  GLU79      -0.2864
     75  CB        23.5200   16.3910   35.7690 C.3    79  GLU79       0.0415
     76  CG        22.4890   15.4800   36.4030 C.3    79  GLU79       0.1163
     77  CD        23.0160   14.0720   36.5770 C.2    79  GLU79       0.3649
     78  OE1       23.1400   13.3620   35.5590 O.co2  79  GLU79      -0.2457
     79  OE2       23.3220   13.6730   37.7210 O.co2  79  GLU79      -0.2457
     80  N         29.0650   17.1160   37.6270 N.3    82  ALA82      -0.1231
     81  CA        29.3370   15.7430   38.0240 C.3    82  ALA82       0.1694
     82  C         29.9320   14.9810   36.8390 C.2    82  ALA82       0.2593
     83  O         30.2440   13.7970   36.9500 O.2    82  ALA82      -0.2718
     84  CB        28.0560   15.0610   38.4980 C.3    82  ALA82       0.0304
     85  N         30.0820   15.6550   35.7020 N.am   83  GLY83      -0.1942
     86  CA        30.6530   14.9970   34.5390 C.3    83  GLY83       0.2014
     87  C         29.7000   14.7030   33.3960 C.2    83  GLY83       0.2638
     88  O         30.0760   14.0350   32.4310 O.2    83  GLY83      -0.2714
     89  N         28.4640   15.1760   33.5040 N.am   84  ARG84      -0.1977
     90  CA        27.4680   14.9790   32.4570 C.3    84  ARG84       0.1597
     91  C         26.9970   16.3650   32.0290 C.2    84  ARG84       0.2287
     92  O         25.9760   16.8660   32.5030 O.2    84  ARG84      -0.2864
     93  CB        26.3040   14.1330   32.9790 C.3    84  ARG84       0.0334
     94  CG        26.6420   12.6490   33.0650 C.3    84  ARG84       0.0492
     95  CD        25.4780   11.8230   33.5870 C.3    84  ARG84       0.2205
     96  NE        25.2400   12.0530   35.0070 N.pl3  84  ARG84      -0.0865
     97  CZ        26.0090   11.5810   35.9830 C.cat  84  ARG84       0.5346
     98  NH1       27.0740   10.8410   35.6980 N.pl3  84  ARG84       0.1354
     99  NH2       25.7120   11.8490   37.2470 N.pl3  84  ARG84       0.1354
    100  N         41.1730    7.2110   49.0160 N.3   115  ASP115     -0.1225
    101  CA        41.1660    7.5870   47.6090 C.3   115  ASP115      0.1805
    102  C         40.6140    9.0000   47.4250 C.2   115  ASP115      0.2597
    103  O         40.4190    9.4670   46.2990 O.2   115  ASP115     -0.2718
    104  CB        40.3940    6.5680   46.7470 C.3   115  ASP115      0.1424
    105  CG        38.9770    6.3190   47.2310 C.2   115  ASP115      0.3668
    106  OD1       38.3590    7.2430   47.7950 O.co2 115  ASP115     -0.2456
    107  OD2       38.4730    5.1900   47.0220 O.co2 115  ASP115     -0.2456
    108  N         40.3670    9.6750   48.5470 N.am  116  HIS116     -0.1975
    109  CA        39.8970   11.0600   48.5490 C.3   116  HIS116      0.1656
    110  C         40.7850   11.8720   49.4800 C.2   116  HIS116      0.2291
    111  O         41.5510   11.3170   50.2680 O.2   116  HIS116     -0.2864
    112  CB        38.4540   11.1730   49.0540 C.3   116  HIS116      0.0771
    113  CG        37.4190   10.8870   48.0130 C.ar  116  HIS116      0.0820
    114  ND1       37.2930    9.6550   47.4100 N.ar  116  HIS116     -0.2267
    115  CD2       36.4690   11.6780   47.4580 C.ar  116  HIS116      0.1154
    116  CE1       36.3100    9.6980   46.5280 C.ar  116  HIS116      0.1986
    117  NE2       35.7940   10.9140   46.5370 N.ar  116  HIS116     -0.2212
    118  N         19.9570   14.2000   47.6240 N.3   137  TYR137     -0.1241
    119  CA        20.3720   12.9610   46.9770 C.3   137  TYR137      0.1605
    120  C         20.2150   11.8480   48.0110 C.2   137  TYR137      0.2264
    121  O         20.6900   11.9700   49.1410 O.2   137  TYR137     -0.2867
    122  CB        21.8250   13.0230   46.5030 C.3   137  TYR137      0.0534
    123  CG        22.0700   12.0840   45.3430 C.ar  137  TYR137     -0.0201
    124  CD1       21.5310   12.3580   44.0850 C.ar  137  TYR137     -0.0009
    125  CD2       22.7700   10.8850   45.5110 C.ar  137  TYR137     -0.0009
    126  CE1       21.6720   11.4660   43.0270 C.ar  137  TYR137      0.0417
    127  CE2       22.9190    9.9830   44.4510 C.ar  137  TYR137      0.0417
    128  CZ        22.3630   10.2830   43.2170 C.ar  137  TYR137      0.1957
    129  OH        22.4800    9.3920   42.1700 O.3   137  TYR137     -0.2866
    130  N         17.9290   11.8880   42.7430 N.3   142  TYR142     -0.1241
    131  CA        17.6250   13.2090   43.2720 C.3   142  TYR142      0.1605
    132  C         16.2530   13.1350   43.9220 C.2   142  TYR142      0.2264
    133  O         15.3230   12.5410   43.3740 O.2   142  TYR142     -0.2867
    134  CB        17.6350   14.2440   42.1460 C.3   142  TYR142      0.0534
    135  CG        19.0120   14.4550   41.5670 C.ar  142  TYR142     -0.0201
    136  CD1       19.9860   15.1600   42.2780 C.ar  142  TYR142     -0.0009
    137  CD2       19.3580   13.9250   40.3260 C.ar  142  TYR142     -0.0009
    138  CE1       21.2710   15.3310   41.7650 C.ar  142  TYR142      0.0417
    139  CE2       20.6390   14.0900   39.8030 C.ar  142  TYR142      0.0417
    140  CZ        21.5890   14.7940   40.5270 C.ar  142  TYR142      0.1957
    141  OH        22.8580   14.9670   40.0210 O.3   142  TYR142     -0.2866
@<TRIPOS>BOND
     1    91    90    1
     2    91    92    2
     3    88    87    2
     4    90    93    1
     5    90    89    1
     6    93    94    1
     7    94    95    1
     8    87    89   am
     9    87    86    1
    10    95    96    1
    11    86    85    1
    12    96    97    2
    13    78    77   ar
    14    74    73    2
    15    98    97    1
    16    85    82   am
    17    75    76    1
    18    75    72    1
    19    73    72    1
    20    97    99    1
    21    76    77    1
    22    77    79   ar
    23    72    71    1
    24    82    83    2
    25    82    81    1
    26    80    81    1
    27    71    67   am
    28    81    84    1
    29    67    68    2
    30    67    66    1
    31    65    66    1
    32    66    69    1
    33   139   137   ar
    34   139   140   ar
    35   141   140    1
    36   137   135   ar
    37    41    40    1
    38   140   138   ar
    39    69    70    1
    40    36    37    1
    41    40    37    1
    42    40    42    1
    43   135   134    1
    44   135   136   ar
    45   138   136   ar
    46   134   131    1
    47   129   128    1
    48    37    38    1
    49   130   131    1
    50   126   128   ar
    51   126   124   ar
    52   128   127   ar
    53   131   132    1
    54    39    38    2
    55   133   132    2
    56    38    43   am
    57    20    19    1
    58   124   123   ar
    59   127   125   ar
    60    34    33    1
    61    43    44    1
    62    19    18    1
    63   123   125   ar
    64   123   122    1
    65    33    35    1
    66    33    30    1
    67    18    17    1
    68    44    47    1
    69    44    45    1
    70   103   102    2
    71   122   119    1
    72   116   117   ar
    73   116   114   ar
    74   117   115   ar
    75   104   105    1
    76   104   101    1
    77    31    32    2
    78    31    30    1
    79    45    46    2
    80    45    48   am
    81    30    29    1
    82   119   118    1
    83   119   120    1
    84   107   105   ar
    85    17    16    1
    86    54    52    1
    87   105   106   ar
    88    48    49    1
    89   114   113   ar
    90   102   101    1
    91   102   108   am
    92   115   113   ar
    93    16    13    1
    94   101   100    1
    95    53    52    1
    96   120   121    2
    97   113   112    1
    98    52    49    1
    99    63    62    2
   100    49    50    1
   101   108   109    1
   102   109   112    1
   103   109   110    1
   104    13    14    1
   105    13    12    1
   106    62    61    1
   107    15    14    2
   108   110   111    2
   109    55    50   am
   110    55    56    1
   111    50    51    2
   112    12     3   am
   113    59    56    1
   114    61    64    1
   115    61    60    1
   116    56    57    1
   117    58    57    2
   118    27    26    1
   119    23    24    2
   120    23    22    1
   121     3     4    2
   122     3     2    1
   123    25    26    1
   124    25    22    1
   125     8    10   ar
   126     8     6   ar
   127    10    11   ar
   128     1     2    1
   129     5     2    1
   130     5     6    1
   131    26    28    1
   132    22    21    1
   133     6     7   ar
   134    11     9   ar
   135     7     9   ar
