@<TRIPOS>MOLECULE
tmp/2ed4A00.pdb
 216 211 0 0 0
SMALL
GASTEIGER

@<TRIPOS>ATOM
      1  N         19.4840   11.8590   59.6770 N.3    16  VAL16      -0.1245
      2  CA        19.8700   12.0360   61.0690 C.3    16  VAL16       0.1561
      3  C         20.4610   10.7220   61.5560 C.2    16  VAL16       0.2260
      4  O         19.8920    9.6590   61.3170 O.2    16  VAL16      -0.2867
      5  CB        18.6500   12.4100   61.9340 C.3    16  VAL16       0.0252
      6  CG1       19.0760   12.6380   63.3800 C.3    16  VAL16       0.0019
      7  CG2       17.9860   13.6660   61.3700 C.3    16  VAL16       0.0019
      8  N         28.4410    2.9000   77.8670 N.3    27  GLU27      -0.1231
      9  CA        28.0450    3.1820   76.4970 C.3    27  GLU27       0.1699
     10  C         27.3760    4.5430   76.3290 C.2    27  GLU27       0.2592
     11  O         26.4670    4.8990   77.0810 O.2    27  GLU27      -0.2718
     12  CB        27.1180    2.0630   76.0220 C.3    27  GLU27       0.0402
     13  CG        26.5390    2.2250   74.6350 C.3    27  GLU27       0.1161
     14  CD        26.0170    0.9110   74.0860 C.2    27  GLU27       0.3649
     15  OE1       26.7910    0.2050   73.4050 O.co2  27  GLU27      -0.2457
     16  OE2       24.8420    0.5750   74.3480 O.co2  27  GLU27      -0.2457
     17  N         27.8340    5.2980   75.3340 N.am   28  ARG28      -0.1966
     18  CA        27.2930    6.6240   75.0470 C.3    28  ARG28       0.1729
     19  C         26.7180    6.6790   73.6340 C.2    28  ARG28       0.2617
     20  O         27.2150    6.0140   72.7230 O.2    28  ARG28      -0.2715
     21  CB        28.3890    7.6850   75.1700 C.3    28  ARG28       0.0348
     22  CG        28.9770    7.8350   76.5580 C.3    28  ARG28       0.0492
     23  CD        28.1000    8.7010   77.4410 C.3    28  ARG28       0.2205
     24  NE        28.6160    8.7750   78.8050 N.pl3  28  ARG28      -0.0865
     25  CZ        28.1590    9.6050   79.7360 C.cat  28  ARG28       0.5346
     26  NH1       28.6890    9.5970   80.9530 N.pl3  28  ARG28       0.1354
     27  NH2       27.1790   10.4530   79.4500 N.pl3  28  ARG28       0.1354
     28  N         25.6700    7.4750   73.4690 N.am   29  GLY29      -0.1940
     29  CA        25.0440    7.6430   72.1710 C.3    29  GLY29       0.2014
     30  C         24.8580    9.1300   71.9500 C.2    29  GLY29       0.2639
     31  O         24.5880    9.8650   72.9000 O.2    29  GLY29      -0.2714
     32  N         25.0080    9.5830   70.7110 N.am   30  MET30      -0.1963
     33  CA        24.8610   10.9980   70.4100 C.3    30  MET30       0.1736
     34  C         24.2700   11.2290   69.0230 C.2    30  MET30       0.2617
     35  O         24.7270   10.6540   68.0330 O.2    30  MET30      -0.2715
     36  CB        26.2200   11.6950   70.5030 C.3    30  MET30       0.0427
     37  CG        26.1630   13.1870   70.2400 C.3    30  MET30       0.0599
     38  SD        27.7830   13.9150   69.9400 S.3    30  MET30      -0.1393
     39  CE        27.9360   13.6530   68.1660 C.3    30  MET30       0.0692
     40  N         23.2530   12.0790   68.9570 N.am   31  THR31      -0.1937
     41  CA        22.6110   12.3960   67.6890 C.3    31  THR31       0.2028
     42  C         23.5330   13.2870   66.8690 C.2    31  THR31       0.2642
     43  O         24.1290   14.2290   67.3970 O.2    31  THR31      -0.2714
     44  CB        21.2760   13.1250   67.9180 C.3    31  THR31       0.1808
     45  OG1       20.3510   12.2280   68.5450 O.3    31  THR31      -0.2208
     46  CG2       20.6970   13.6160   66.5960 C.3    31  THR31       0.0379
     47  N         23.6590   12.9860   65.5790 N.am   32  ALA32      -0.1963
     48  CA        24.5230   13.7720   64.7090 C.3    32  ALA32       0.1728
     49  C         24.0240   13.8210   63.2740 C.2    32  ALA32       0.2617
     50  O         23.6140   12.8020   62.7210 O.2    32  ALA32      -0.2715
     51  CB        25.9470   13.2070   64.7360 C.3    32  ALA32       0.0334
     52  N         24.0520   15.0150   62.6820 N.am   33  THR33      -0.1937
     53  CA        23.6530   15.1920   61.2890 C.3    33  THR33       0.2028
     54  C         24.9260   15.3650   60.4660 C.2    33  THR33       0.2642
     55  O         24.9250   15.1590   59.2500 O.2    33  THR33      -0.2714
     56  CB        22.7570   16.4330   61.0850 C.3    33  THR33       0.1808
     57  OG1       23.3420   17.5610   61.7480 O.3    33  THR33      -0.2208
     58  CG2       21.3470   16.1760   61.6210 C.3    33  THR33       0.0379
     59  N         26.0140   15.7410   61.1330 N.am   34  ALA34      -0.1977
     60  CA        27.2950   15.9270   60.4560 C.3    34  ALA34       0.1597
     61  C         27.9160   14.5590   60.1970 C.2    34  ALA34       0.2287
     62  O         28.7700   14.0820   60.9520 O.2    34  ALA34      -0.2864
     63  CB        28.2300   16.7880   61.3010 C.3    34  ALA34       0.0319
     64  N         31.4420   14.6580   62.4030 N.3    48  ALA48      -0.1245
     65  CA        31.9720   15.6820   63.2890 C.3    48  ALA48       0.1562
     66  C         31.3430   15.5230   64.6630 C.2    48  ALA48       0.2260
     67  O         30.1220   15.5330   64.8000 O.2    48  ALA48      -0.2867
     68  CB        31.6680   17.0670   62.7260 C.3    48  ALA48       0.0290
     69  N         31.4470   17.0800   68.5750 N.3    50  SER50      -0.1217
     70  CA        31.8770   18.2150   69.3860 C.3    50  SER50       0.1889
     71  C         32.9960   17.8300   70.3410 C.2    50  SER50       0.2288
     72  O         32.9920   16.7390   70.9000 O.2    50  SER50      -0.2866
     73  CB        30.7050   18.7620   70.2030 C.3    50  SER50       0.2089
     74  OG        31.1610   19.7500   71.1170 O.3    50  SER50      -0.2183
     75  N         33.3420   18.8720   73.1090 N.3    52  ARG52      -0.1231
     76  CA        32.7400   18.8390   74.4420 C.3    52  ARG52       0.1694
     77  C         31.7490   17.6880   74.6010 C.2    52  ARG52       0.2592
     78  O         31.1170   17.5480   75.6470 O.2    52  ARG52      -0.2718
     79  CB        32.0250   20.1640   74.7380 C.3    52  ARG52       0.0321
     80  CG        32.9500   21.3640   74.8830 C.3    52  ARG52       0.0489
     81  CD        33.8920   21.1960   76.0700 C.3    52  ARG52       0.2205
     82  NE        33.1720   21.0960   77.3380 N.pl3  52  ARG52      -0.0865
     83  CZ        32.5870   22.1180   77.9580 C.cat  52  ARG52       0.5346
     84  NH1       32.6330   23.3340   77.4310 N.pl3  52  ARG52       0.1354
     85  NH2       31.9560   21.9220   79.1080 N.pl3  52  ARG52       0.1354
     86  N         31.6180   16.8610   73.5670 N.am   53  ALA53      -0.1966
     87  CA        30.6960   15.7340   73.6160 C.3    53  ALA53       0.1728
     88  C         31.2260   14.6410   74.5340 C.2    53  ALA53       0.2616
     89  O         32.3930   14.2640   74.4500 O.2    53  ALA53      -0.2715
     90  CB        30.4800   15.1720   72.2140 C.3    53  ALA53       0.0334
     91  N         30.3640   14.1350   75.4070 N.am   54  LYS54      -0.1963
     92  CA        30.7510   13.0790   76.3330 C.3    54  LYS54       0.1728
     93  C         31.0630   11.8070   75.5600 C.2    54  LYS54       0.2616
     94  O         31.7850   10.9320   76.0380 O.2    54  LYS54      -0.2715
     95  CB        29.6280   12.8220   77.3360 C.3    54  LYS54       0.0311
     96  CG        29.3770   13.9960   78.2680 C.3    54  LYS54       0.0038
     97  CD        28.1690   13.7580   79.1510 C.3    54  LYS54       0.0206
     98  CE        27.9790   14.9040   80.1280 C.3    54  LYS54       0.1093
     99  NZ        26.7610   14.7130   80.9630 N.3    54  LYS54      -0.1314
    100  N         30.5140   11.7120   74.3540 N.am   55  LEU55      -0.1977
    101  CA        30.7410   10.5520   73.5080 C.3    55  LEU55       0.1596
    102  C         32.1940   10.4350   73.0740 C.2    55  LEU55       0.2287
    103  O         32.7500    9.3370   73.0290 O.2    55  LEU55      -0.2864
    104  CB        29.8580   10.6320   72.2570 C.3    55  LEU55       0.0297
    105  CG        30.3060    9.7730   71.0660 C.3    55  LEU55       0.0022
    106  CD1       30.3250    8.2990   71.4600 C.3    55  LEU55       0.0001
    107  CD2       29.3630   10.0050   69.8890 C.3    55  LEU55       0.0001
    108  N         16.0750   10.6290   67.8950 N.3    78  SER78      -0.1217
    109  CA        16.9720   11.7420   67.6240 C.3    78  SER78       0.1889
    110  C         17.0140   12.7010   68.8180 C.2    78  SER78       0.2288
    111  O         18.0890   13.0680   69.2930 O.2    78  SER78      -0.2866
    112  CB        16.5170   12.4870   66.3660 C.3    78  SER78       0.2089
    113  OG        17.3530   13.6040   66.1160 O.3    78  SER78      -0.2183
    114  N         16.1850   12.1800   71.9730 N.3    80  HIS80      -0.1226
    115  CA        16.7780   11.5170   73.1330 C.3    80  HIS80       0.1752
    116  C         18.3010   11.6110   73.1330 C.2    80  HIS80       0.2596
    117  O         18.9090   12.0700   74.1020 O.2    80  HIS80      -0.2718
    118  CB        16.3730   10.0420   73.1580 C.3    80  HIS80       0.0759
    119  CG        16.9430    9.2800   74.3150 C.ar   80  HIS80       0.0818
    120  ND1       16.4110    9.3460   75.5850 N.ar   80  HIS80      -0.2268
    121  CD2       18.0240    8.4690   74.4020 C.ar   80  HIS80       0.1154
    122  CE1       17.1400    8.6090   76.4050 C.ar   80  HIS80       0.1986
    123  NE2       18.1260    8.0660   75.7120 N.ar   80  HIS80      -0.2212
    124  N         18.9160   11.1710   72.0420 N.am   81  PHE81      -0.1962
    125  CA        20.3660   11.1910   71.9350 C.3    81  PHE81       0.1771
    126  C         20.9430   12.5710   71.6420 C.2    81  PHE81       0.2619
    127  O         22.1580   12.7300   71.5280 O.2    81  PHE81      -0.2715
    128  CB        20.8070   10.1610   70.8920 C.3    81  PHE81       0.0574
    129  CG        20.5870    8.7410   71.3380 C.ar   81  PHE81      -0.0200
    130  CD1       21.3820    8.1880   72.3390 C.ar   81  PHE81      -0.0042
    131  CD2       19.5550    7.9780   70.8050 C.ar   81  PHE81      -0.0042
    132  CE1       21.1500    6.8950   72.8050 C.ar   81  PHE81      -0.0003
    133  CE2       19.3130    6.6840   71.2640 C.ar   81  PHE81      -0.0003
    134  CZ        20.1120    6.1420   72.2680 C.ar   81  PHE81      -0.0000
    135  N         20.0670   13.5660   71.5410 N.am   82  ALA82      -0.1963
    136  CA        20.4870   14.9420   71.2950 C.3    82  ALA82       0.1728
    137  C         20.6050   15.6700   72.6330 C.2    82  ALA82       0.2617
    138  O         21.0490   16.8170   72.6940 O.2    82  ALA82      -0.2715
    139  CB        19.4760   15.6520   70.4070 C.3    82  ALA82       0.0334
    140  N         20.1980   14.9970   73.7060 N.am   83  GLY83      -0.1940
    141  CA        20.2740   15.5950   75.0280 C.3    83  GLY83       0.2014
    142  C         18.9230   15.8060   75.6890 C.2    83  GLY83       0.2639
    143  O         18.8500   16.2610   76.8310 O.2    83  GLY83      -0.2714
    144  N         17.8510   15.4810   74.9730 N.am   84  ARG84      -0.1963
    145  CA        16.4960   15.6390   75.4940 C.3    84  ARG84       0.1714
    146  C         15.8710   14.2630   75.7020 C.2    84  ARG84       0.2458
    147  O         15.0800   13.8010   74.8810 O.2    84  ARG84      -0.2730
    148  CB        15.6590   16.4510   74.5060 C.3    84  ARG84       0.0347
    149  CG        16.2370   17.8250   74.2200 C.3    84  ARG84       0.0492
    150  CD        15.8370   18.3060   72.8420 C.3    84  ARG84       0.2205
    151  NE        16.9460   18.9920   72.1870 N.pl3  84  ARG84      -0.0865
    152  CZ        16.9570   19.3450   70.9050 C.cat  84  ARG84       0.5346
    153  NH1       18.0140   19.9660   70.4000 N.pl3  84  ARG84       0.1354
    154  NH2       15.9160   19.0770   70.1290 N.pl3  84  ARG84       0.1354
    155  N         16.2120   13.6000   76.8180 N.am   85  PRO85      -0.2727
    156  CA        15.7140   12.2660   77.1720 C.3    85  PRO85       0.1402
    157  C         14.2460   12.0030   76.8610 C.2    85  PRO85       0.2269
    158  O         13.3820   12.8310   77.1360 O.2    85  PRO85      -0.2865
    159  CB        16.0200   12.1770   78.6630 C.3    85  PRO85       0.0296
    160  CG        17.3030   12.9280   78.7680 C.3    85  PRO85       0.0237
    161  CD        17.0210   14.1540   77.9190 C.3    85  PRO85       0.0939
    162  N         13.7620    4.8100   75.2520 N.3    89  ILE89      -0.1231
    163  CA        14.7980    4.8580   74.2250 C.3    89  ILE89       0.1692
    164  C         16.1080    4.2960   74.7640 C.2    89  ILE89       0.2592
    165  O         16.6360    4.7810   75.7660 O.2    89  ILE89      -0.2718
    166  CB        15.0450    6.3000   73.7350 C.3    89  ILE89       0.0266
    167  CG1       13.7340    6.9190   73.2450 C.3    89  ILE89       0.0019
    168  CG2       16.0790    6.2980   72.6190 C.3    89  ILE89       0.0020
    169  CD1       13.0820    6.1680   72.0960 C.3    89  ILE89       0.0001
    170  N         16.6300    3.2710   74.0950 N.am   90  ALA90      -0.1966
    171  CA        17.8800    2.6500   74.5160 C.3    90  ALA90       0.1728
    172  C         18.6470    2.0390   73.3490 C.2    90  ALA90       0.2616
    173  O         18.0640    1.6670   72.3340 O.2    90  ALA90      -0.2715
    174  CB        17.5970    1.5770   75.5590 C.3    90  ALA90       0.0334
    175  N         19.9630    1.9440   73.5030 N.am   91  LEU91      -0.1977
    176  CA        20.8090    1.3510   72.4770 C.3    91  LEU91       0.1596
    177  C         20.7550   -0.1660   72.6380 C.2    91  LEU91       0.2287
    178  O         20.6930   -0.6740   73.7590 O.2    91  LEU91      -0.2864
    179  CB        22.2560    1.8270   72.6350 C.3    91  LEU91       0.0297
    180  CG        22.5510    3.3100   72.4000 C.3    91  LEU91       0.0022
    181  CD1       24.0090    3.5960   72.7240 C.3    91  LEU91       0.0001
    182  CD2       22.2430    3.6710   70.9500 C.3    91  LEU91       0.0001
    183  N         35.0120   20.9810   66.8500 N.3   116  HIS116     -0.1241
    184  CA        34.5680   19.6000   66.6640 C.3   116  HIS116      0.1621
    185  C         35.7860   18.8020   66.2250 C.2   116  HIS116      0.2264
    186  O         36.7820   19.3710   65.7850 O.2   116  HIS116     -0.2867
    187  CB        33.5090   19.4790   65.5600 C.3   116  HIS116      0.0745
    188  CG        32.1130   19.7900   66.0020 C.ar  116  HIS116      0.0817
    189  ND1       31.7370   21.0310   66.4700 N.ar  116  HIS116     -0.2268
    190  CD2       30.9890   19.0360   65.9910 C.ar  116  HIS116      0.1154
    191  CE1       30.4410   21.0280   66.7230 C.ar  116  HIS116      0.1986
    192  NE2       29.9640   19.8300   66.4420 N.ar  116  HIS116     -0.2212
    193  N         16.4120   16.2590   58.5030 N.3   137  TYR137     -0.1241
    194  CA        16.4570   17.4940   59.2610 C.3   137  TYR137      0.1605
    195  C         16.7800   18.6000   58.2650 C.2   137  TYR137      0.2264
    196  O         17.7030   18.4730   57.4550 O.2   137  TYR137     -0.2867
    197  CB        17.5350   17.4470   60.3420 C.3   137  TYR137      0.0534
    198  CG        17.2710   18.4310   61.4600 C.ar  137  TYR137     -0.0201
    199  CD1       16.2210   18.2250   62.3560 C.ar  137  TYR137     -0.0009
    200  CD2       18.0460   19.5810   61.6060 C.ar  137  TYR137     -0.0009
    201  CE1       15.9500   19.1420   63.3740 C.ar  137  TYR137      0.0417
    202  CE2       17.7860   20.5030   62.6200 C.ar  137  TYR137      0.0417
    203  CZ        16.7360   20.2770   63.4990 C.ar  137  TYR137      0.1957
    204  OH        16.4750   21.1890   64.5000 O.3   137  TYR137     -0.2866
    205  N         12.3520   18.5420   61.7660 N.3   142  TYR142     -0.1241
    206  CA        12.3410   17.2140   61.1730 C.3   142  TYR142      0.1605
    207  C         11.3970   17.2780   59.9820 C.2   142  TYR142      0.2264
    208  O         10.2830   17.7950   60.0960 O.2   142  TYR142     -0.2867
    209  CB        11.8490   16.1890   62.1960 C.3   142  TYR142      0.0534
    210  CG        12.8100   16.0100   63.3450 C.ar  142  TYR142     -0.0201
    211  CD1       14.0470   15.3930   63.1510 C.ar  142  TYR142     -0.0009
    212  CD2       12.5050   16.4910   64.6170 C.ar  142  TYR142     -0.0009
    213  CE1       14.9550   15.2620   64.1900 C.ar  142  TYR142      0.0417
    214  CE2       13.4110   16.3660   65.6670 C.ar  142  TYR142      0.0417
    215  CZ        14.6350   15.7520   65.4460 C.ar  142  TYR142      0.1957
    216  OH        15.5360   15.6290   66.4780 O.3   142  TYR142     -0.2866
@<TRIPOS>BOND
     1   196   195    2
     2   195   194    1
     3   193   194    1
     4    55    54    2
     5   194   197    1
     6     1     2    1
     7   207   208    2
     8   207   206    1
     9    61    60    1
    10    61    62    2
    11   197   198    1
    12    60    59    1
    13    60    63    1
    14    54    59   am
    15    54    53    1
    16     2     3    1
    17     2     5    1
    18    56    53    1
    19    56    58    1
    20    56    57    1
    21   206   205    1
    22   206   209    1
    23    53    52    1
    24     4     3    2
    25     7     5    1
    26   198   200   ar
    27   198   199   ar
    28   200   202   ar
    29     5     6    1
    30   209   210    1
    31   199   201   ar
    32    64    65    1
    33   202   203   ar
    34    52    49   am
    35    50    49    2
    36    68    65    1
    37   211   210   ar
    38   211   213   ar
    39    49    48    1
    40    65    66    1
    41   210   212   ar
    42   201   203   ar
    43   203   204    1
    44   213   215   ar
    45   212   214   ar
    46    66    67    2
    47    48    51    1
    48    48    47    1
    49   215   214   ar
    50   215   216    1
    51   187   188    1
    52   187   184    1
    53    47    42   am
    54   186   185    2
    55   190   188   ar
    56   190   192   ar
    57   188   189   ar
    58   113   112    1
    59   185   184    1
    60   112   109    1
    61   192   191   ar
    62   189   191   ar
    63    46    44    1
    64   184   183    1
    65    42    43    2
    66    42    41    1
    67   109   108    1
    68   109   110    1
    69    41    44    1
    70    41    40    1
    71    44    45    1
    72    35    34    2
    73    39    38    1
    74    69    70    1
    75   110   111    2
    76    40    34   am
    77    34    33    1
    78    70    73    1
    79    70    71    1
    80   107   105    1
    81    38    37    1
    82   154   152    1
    83    73    74    1
    84    37    36    1
    85    71    72    2
    86   153   152    1
    87   139   136    1
    88    33    36    1
    89    33    32    1
    90    32    30   am
    91   131   133   ar
    92   131   129   ar
    93   128   129    1
    94   128   125    1
    95   152   151    2
    96   182   180    1
    97   105   106    1
    98   105   104    1
    99   133   134   ar
   100   136   135    1
   101   136   137    1
   102   129   130   ar
   103   127   126    2
   104   135   126   am
   105   126   125    1
   106   125   124    1
   107    30    29    1
   108    30    31    2
   109   114   115    1
   110   124   116   am
   111   169   167    1
   112    29    28    1
   113   151   150    1
   114    90    87    1
   115   104   101    1
   116   134   132   ar
   117   173   172    2
   118   130   132   ar
   119   180   179    1
   120   180   181    1
   121   176   179    1
   122   176   177    1
   123   176   175    1
   124   168   166    1
   125   137   138    2
   126   137   140   am
   127   177   178    2
   128    20    19    2
   129   150   149    1
   130   103   102    2
   131   102   101    1
   132    75    76    1
   133   116   115    1
   134   116   117    2
   135   115   118    1
   136   118   119    1
   137   167   166    1
   138   172   175   am
   139   172   171    1
   140    15    14   ar
   141    28    19   am
   142   101   100    1
   143    86    87    1
   144    86    77   am
   145    87    88    1
   146    19    18    1
   147   140   141    1
   148   166   163    1
   149    14    16   ar
   150    14    13    1
   151   170   171    1
   152   170   164   am
   153   149   148    1
   154   163   164    1
   155   163   162    1
   156   119   121   ar
   157   119   120   ar
   158   100    93   am
   159   121   123   ar
   160    76    77    1
   161    76    79    1
   162    89    88    2
   163   148   145    1
   164   171   174    1
   165    88    91   am
   166    77    78    2
   167    13    12    1
   168    79    80    1
   169   164   165    2
   170   147   146    2
   171    80    81    1
   172   144   145    1
   173   144   142   am
   174   141   142    1
   175    18    21    1
   176    18    17    1
   177    21    22    1
   178    17    10   am
   179    91    92    1
   180   145   146    1
   181    93    94    2
   182    93    92    1
   183   120   122   ar
   184   142   143    2
   185   146   155   am
   186   123   122   ar
   187    12     9    1
   188    81    82    1
   189    10     9    1
   190    10    11    2
   191    92    95    1
   192     9     8    1
   193    22    23    1
   194   155   156    1
   195   155   161    1
   196   157   158    2
   197   157   156    1
   198   156   159    1
   199    95    96    1
   200    82    83    2
   201    84    83    1
   202    23    24    1
   203   161   160    1
   204    83    85    1
   205    96    97    1
   206   159   160    1
   207    24    25    2
   208    97    98    1
   209    27    25    1
   210    25    26    1
   211    98    99    1
