@<TRIPOS>MOLECULE
tmp/2ed4A01.pdb
 107 102 0 0 0
SMALL
GASTEIGER

@<TRIPOS>ATOM
      1  N         25.9160   32.1690   58.9400 N.3     5  PHE5       -0.1227
      2  CA        26.5280   30.8480   58.8180 C.3     5  PHE5        0.1736
      3  C         25.5120   29.7820   59.2110 C.2     5  PHE5        0.2595
      4  O         25.3410   28.7890   58.5070 O.2     5  PHE5       -0.2718
      5  CB        27.7580   30.7530   59.7270 C.3     5  PHE5        0.0547
      6  CG        28.4380   29.4050   59.7070 C.ar    5  PHE5       -0.0202
      7  CD1       29.0210   28.9190   58.5420 C.ar    5  PHE5       -0.0042
      8  CD2       28.5100   28.6320   60.8580 C.ar    5  PHE5       -0.0042
      9  CE1       29.6670   27.6820   58.5250 C.ar    5  PHE5       -0.0003
     10  CE2       29.1540   27.3920   60.8510 C.ar    5  PHE5       -0.0003
     11  CZ        29.7340   26.9190   59.6800 C.ar    5  PHE5       -0.0000
     12  N         24.8350   29.9910   60.3360 N.am    6  LYS6       -0.1980
     13  CA        23.8400   29.0310   60.8010 C.3     6  LYS6        0.1596
     14  C         22.6690   28.9180   59.8370 C.2     6  LYS6        0.2287
     15  O         22.1710   27.8230   59.5880 O.2     6  LYS6       -0.2864
     16  CB        23.3250   29.4190   62.1880 C.3     6  LYS6        0.0298
     17  CG        24.3510   29.2650   63.2930 C.3     6  LYS6        0.0038
     18  CD        23.7610   29.7040   64.6190 C.3     6  LYS6        0.0206
     19  CE        24.7520   29.5560   65.7510 C.3     6  LYS6        0.1093
     20  NZ        24.1730   30.0900   67.0180 N.3     6  LYS6       -0.1314
     21  N         23.7580   26.7810   56.8370 N.3     9  LEU9       -0.1231
     22  CA        23.8450   25.3620   57.1590 C.3     9  LEU9        0.1693
     23  C         22.4800   24.7560   57.4510 C.2     9  LEU9        0.2591
     24  O         22.2830   23.5550   57.2740 O.2     9  LEU9       -0.2718
     25  CB        24.7960   25.1360   58.3350 C.3     9  LEU9        0.0284
     26  CG        26.2830   25.0630   57.9640 C.3     9  LEU9        0.0019
     27  CD1       26.5100   23.8700   57.0500 C.3     9  LEU9        0.0001
     28  CD2       26.7300   26.3390   57.2750 C.3     9  LEU9        0.0001
     29  N         21.5370   25.5840   57.8900 N.am   10  ALA10      -0.1980
     30  CA        20.1870   25.1040   58.1640 C.3    10  ALA10       0.1597
     31  C         19.5340   24.7820   56.8270 C.2    10  ALA10       0.2287
     32  O         18.5060   24.1070   56.7700 O.2    10  ALA10      -0.2864
     33  CB        19.3750   26.1720   58.8970 C.3    10  ALA10       0.0319
     34  N         23.6590   12.9860   65.5790 N.3    32  ALA32      -0.1231
     35  CA        24.5230   13.7720   64.7090 C.3    32  ALA32       0.1694
     36  C         24.0240   13.8210   63.2740 C.2    32  ALA32       0.2593
     37  O         23.6140   12.8020   62.7210 O.2    32  ALA32      -0.2718
     38  CB        25.9470   13.2070   64.7360 C.3    32  ALA32       0.0304
     39  N         24.0520   15.0150   62.6820 N.am   33  THR33      -0.1939
     40  CA        23.6530   15.1920   61.2890 C.3    33  THR33       0.2028
     41  C         24.9260   15.3650   60.4660 C.2    33  THR33       0.2642
     42  O         24.9250   15.1590   59.2500 O.2    33  THR33      -0.2714
     43  CB        22.7570   16.4330   61.0850 C.3    33  THR33       0.1808
     44  OG1       23.3420   17.5610   61.7480 O.3    33  THR33      -0.2208
     45  CG2       21.3470   16.1760   61.6210 C.3    33  THR33       0.0379
     46  N         26.0140   15.7410   61.1330 N.am   34  ALA34      -0.1977
     47  CA        27.2950   15.9270   60.4560 C.3    34  ALA34       0.1597
     48  C         27.9160   14.5590   60.1970 C.2    34  ALA34       0.2287
     49  O         28.7700   14.0820   60.9520 O.2    34  ALA34      -0.2864
     50  CB        28.2300   16.7880   61.3010 C.3    34  ALA34       0.0319
     51  N         31.4420   14.6580   62.4030 N.3    48  ALA48      -0.1245
     52  CA        31.9720   15.6820   63.2890 C.3    48  ALA48       0.1562
     53  C         31.3430   15.5230   64.6630 C.2    48  ALA48       0.2260
     54  O         30.1220   15.5330   64.8000 O.2    48  ALA48      -0.2867
     55  CB        31.6680   17.0670   62.7260 C.3    48  ALA48       0.0290
     56  N         17.8510   15.4810   74.9730 N.3    84  ARG84      -0.1245
     57  CA        16.4960   15.6390   75.4940 C.3    84  ARG84       0.1563
     58  C         15.8710   14.2630   75.7020 C.2    84  ARG84       0.2260
     59  O         15.0800   13.8010   74.8810 O.2    84  ARG84      -0.2867
     60  CB        15.6590   16.4510   74.5060 C.3    84  ARG84       0.0307
     61  CG        16.2370   17.8250   74.2200 C.3    84  ARG84       0.0489
     62  CD        15.8370   18.3060   72.8420 C.3    84  ARG84       0.2205
     63  NE        16.9460   18.9920   72.1870 N.pl3  84  ARG84      -0.0865
     64  CZ        16.9570   19.3450   70.9050 C.cat  84  ARG84       0.5346
     65  NH1       18.0140   19.9660   70.4000 N.pl3  84  ARG84       0.1354
     66  NH2       15.9160   19.0770   70.1290 N.pl3  84  ARG84       0.1354
     67  N         35.9100   23.5110   66.7520 N.3   115  ASP115     -0.1225
     68  CA        35.3270   23.0880   68.0220 C.3   115  ASP115      0.1805
     69  C         34.7460   21.6730   67.9550 C.2   115  ASP115      0.2597
     70  O         34.0690   21.2220   68.8800 O.2   115  ASP115     -0.2718
     71  CB        34.2530   24.0740   68.5060 C.3   115  ASP115      0.1424
     72  CG        33.1460   24.2940   67.4960 C.2   115  ASP115      0.3668
     73  OD1       32.8390   23.3650   66.7220 O.co2 115  ASP115     -0.2456
     74  OD2       32.5650   25.4020   67.4950 O.co2 115  ASP115     -0.2456
     75  N         35.0120   20.9810   66.8500 N.am  116  HIS116     -0.1975
     76  CA        34.5680   19.6000   66.6640 C.3   116  HIS116      0.1656
     77  C         35.7860   18.8020   66.2250 C.2   116  HIS116      0.2291
     78  O         36.7820   19.3710   65.7850 O.2   116  HIS116     -0.2864
     79  CB        33.5090   19.4790   65.5600 C.3   116  HIS116      0.0771
     80  CG        32.1130   19.7900   66.0020 C.ar  116  HIS116      0.0820
     81  ND1       31.7370   21.0310   66.4700 N.ar  116  HIS116     -0.2267
     82  CD2       30.9890   19.0360   65.9910 C.ar  116  HIS116      0.1154
     83  CE1       30.4410   21.0280   66.7230 C.ar  116  HIS116      0.1986
     84  NE2       29.9640   19.8300   66.4420 N.ar  116  HIS116     -0.2212
     85  N         16.4120   16.2590   58.5030 N.3   137  TYR137     -0.1241
     86  CA        16.4570   17.4940   59.2610 C.3   137  TYR137      0.1605
     87  C         16.7800   18.6000   58.2650 C.2   137  TYR137      0.2264
     88  O         17.7030   18.4730   57.4550 O.2   137  TYR137     -0.2867
     89  CB        17.5350   17.4470   60.3420 C.3   137  TYR137      0.0534
     90  CG        17.2710   18.4310   61.4600 C.ar  137  TYR137     -0.0201
     91  CD1       16.2210   18.2250   62.3560 C.ar  137  TYR137     -0.0009
     92  CD2       18.0460   19.5810   61.6060 C.ar  137  TYR137     -0.0009
     93  CE1       15.9500   19.1420   63.3740 C.ar  137  TYR137      0.0417
     94  CE2       17.7860   20.5030   62.6200 C.ar  137  TYR137      0.0417
     95  CZ        16.7360   20.2770   63.4990 C.ar  137  TYR137      0.1957
     96  OH        16.4750   21.1890   64.5000 O.3   137  TYR137     -0.2866
     97  N         15.8890   23.7770   60.7410 N.3   140  ARG140     -0.1245
     98  CA        15.5920   23.5990   62.1550 C.3   140  ARG140      0.1563
     99  C         14.3360   22.7820   62.4630 C.2   140  ARG140      0.2260
    100  O         13.5740   23.1100   63.3750 O.2   140  ARG140     -0.2867
    101  CB        15.5120   24.9820   62.8040 C.3   140  ARG140      0.0307
    102  CG        16.6710   25.8820   62.3830 C.3   140  ARG140      0.0489
    103  CD        16.6120   27.2550   63.0280 C.3   140  ARG140      0.2205
    104  NE        17.7960   28.0550   62.7140 N.pl3 140  ARG140     -0.0865
    105  CZ        18.0110   28.6660   61.5510 C.cat 140  ARG140      0.5346
    106  NH1       17.1200   28.5820   60.5730 N.pl3 140  ARG140      0.1354
    107  NH2       19.1220   29.3660   61.3680 N.pl3 140  ARG140      0.1354
@<TRIPOS>BOND
     1    32    31    2
     2    31    30    1
     3    21    22    1
     4    27    26    1
     5    22    23    1
     6    22    25    1
     7    24    23    2
     8    28    26    1
     9    23    29   am
    10    88    87    2
    11    29    30    1
    12    26    25    1
    13    30    33    1
    14    87    86    1
    15    85    86    1
    16     4     3    2
    17     9     7   ar
    18     9    11   ar
    19     7     6   ar
    20     2     1    1
    21     2     3    1
    22     2     5    1
    23     3    12   am
    24    42    41    2
    25    86    89    1
    26    15    14    2
    27    11    10   ar
    28     6     5    1
    29     6     8   ar
    30    14    13    1
    31    48    47    1
    32    48    49    2
    33    12    13    1
    34    89    90    1
    35    47    46    1
    36    47    50    1
    37    41    46   am
    38    41    40    1
    39   106   105    1
    40    97    98    1
    41    13    16    1
    42    10     8   ar
    43    43    40    1
    44    43    45    1
    45    43    44    1
    46    40    39    1
    47   107   105    1
    48    90    92   ar
    49    90    91   ar
    50   105   104    2
    51    92    94   ar
    52    98    99    1
    53    98   101    1
    54    16    17    1
    55    91    93   ar
    56   102   101    1
    57   102   103    1
    58    51    52    1
    59    99   100    2
    60    94    95   ar
    61    39    36   am
    62   104   103    1
    63    37    36    2
    64    55    52    1
    65    36    35    1
    66    52    53    1
    67    17    18    1
    68    93    95   ar
    69    95    96    1
    70    18    19    1
    71    53    54    2
    72    35    38    1
    73    35    34    1
    74    79    80    1
    75    79    76    1
    76    19    20    1
    77    78    77    2
    78    82    80   ar
    79    82    84   ar
    80    80    81   ar
    81    77    76    1
    82    84    83   ar
    83    81    83   ar
    84    76    75    1
    85    73    72   ar
    86    67    68    1
    87    75    69   am
    88    74    72   ar
    89    72    71    1
    90    69    68    1
    91    69    70    2
    92    68    71    1
    93    66    64    1
    94    65    64    1
    95    64    63    2
    96    63    62    1
    97    62    61    1
    98    61    60    1
    99    60    57    1
   100    59    58    2
   101    56    57    1
   102    57    58    1
