@<TRIPOS>MOLECULE
tmp/2eekA00.pdb
 131 132 0 0 0
SMALL
GASTEIGER

@<TRIPOS>ATOM
      1  N          4.6170   27.3540   15.5110 N.3    40  HIS40      -0.1241
      2  CA         5.0380   28.6130   16.1120 C.3    40  HIS40       0.1621
      3  C          3.8670   29.5930   16.2080 C.2    40  HIS40       0.2264
      4  O          3.9990   30.6710   16.7820 O.2    40  HIS40      -0.2867
      5  CB         6.2120   29.2390   15.3410 C.3    40  HIS40       0.0745
      6  CG         5.8150   30.0040   14.1180 C.ar   40  HIS40       0.0817
      7  ND1        5.8870   29.4710   12.8470 N.ar   40  HIS40      -0.2268
      8  CD2        5.3840   31.2780   13.9670 C.ar   40  HIS40       0.1154
      9  CE1        5.5220   30.3870   11.9680 C.ar   40  HIS40       0.1986
     10  NE2        5.2130   31.4930   12.6210 N.ar   40  HIS40      -0.2212
     11  N          7.3920   36.7250   -2.3550 N.3   170  ASP170     -0.1225
     12  CA         7.6140   35.8360   -1.2160 C.3   170  ASP170      0.1805
     13  C          6.4450   35.9410   -0.2390 C.2   170  ASP170      0.2598
     14  O          5.6120   36.8410   -0.3580 O.2   170  ASP170     -0.2718
     15  CB         8.9300   36.2700   -0.5460 C.3   170  ASP170      0.1424
     16  CG         9.3220   35.4140    0.6480 C.2   170  ASP170      0.3668
     17  OD1        8.8520   34.2660    0.7790 O.co2 170  ASP170     -0.2456
     18  OD2       10.1420   35.9070    1.4520 O.co2 170  ASP170     -0.2456
     19  N          6.3580   35.0010    0.6970 N.am  171  SER171     -0.1938
     20  CA         5.3190   35.0590    1.7160 C.3   171  SER171      0.2055
     21  C          5.9450   35.9650    2.7740 C.2   171  SER171      0.2643
     22  O          7.1230   36.3120    2.6620 O.2   171  SER171     -0.2714
     23  CB         5.0090   33.6640    2.2780 C.3   171  SER171      0.2130
     24  OG         6.1790   32.9950    2.7110 O.3   171  SER171     -0.2179
     25  N          5.1930   36.3470    3.7990 N.am  172  CYS172     -0.1953
     26  CA         5.7490   37.2590    4.7900 C.3   172  CYS172      0.1843
     27  C          5.0620   37.1420    6.1490 C.2   172  CYS172      0.2625
     28  O          4.2050   36.2830    6.3360 O.2   172  CYS172     -0.2714
     29  CB         5.6220   38.6800    4.2420 C.3   172  CYS172      0.0997
     30  SG         6.5780   39.9650    5.0940 S.3   172  CYS172     -0.0797
     31  N          5.4470   37.9970    7.0990 N.am  173  GLN173     -0.1977
     32  CA         4.8380   37.9650    8.4300 C.3   173  GLN173      0.1601
     33  C          3.3240   38.0850    8.2860 C.2   173  GLN173      0.2287
     34  O          2.8270   38.9540    7.5700 O.2   173  GLN173     -0.2864
     35  CB         5.3470   39.1200    9.3030 C.3   173  GLN173      0.0394
     36  CG         6.8440   39.1180    9.5860 C.3   173  GLN173      0.0908
     37  CD         7.6640   39.6560    8.4260 C.2   173  GLN173      0.2608
     38  OE1        7.4200   40.7620    7.9350 O.2   173  GLN173     -0.2717
     39  NE2        8.6480   38.8800    7.9890 N.am  173  GLN173     -0.0878
     40  N          2.3110   33.3080    8.0490 N.3   176  SER176     -0.1217
     41  CA         2.7220   32.1520    8.8450 C.3   176  SER176      0.1889
     42  C          1.5700   31.1940    9.1270 C.2   176  SER176      0.2288
     43  O          0.4650   31.6270    9.4270 O.2   176  SER176     -0.2866
     44  CB         3.3200   32.6180   10.1780 C.3   176  SER176      0.2089
     45  OG         4.4350   33.4650    9.9660 O.3   176  SER176     -0.2183
     46  N          3.5930   27.8240    5.7700 N.3   190  VAL190     -0.1231
     47  CA         4.4620   29.0030    5.8670 C.3   190  VAL190      0.1692
     48  C          5.1410   28.9820    7.2360 C.2   190  VAL190      0.2593
     49  O          4.4750   29.0820    8.2640 O.2   190  VAL190     -0.2718
     50  CB         3.6560   30.3150    5.7210 C.3   190  VAL190      0.0266
     51  CG1        4.5990   31.5130    5.7830 C.3   190  VAL190      0.0020
     52  CG2        2.8900   30.3150    4.3980 C.3   190  VAL190      0.0020
     53  N          6.4670   28.8680    7.2480 N.am  191  SER191     -0.1938
     54  CA         7.1960   28.7800    8.5050 C.3   191  SER191      0.2055
     55  C          8.0120   30.0120    8.8780 C.2   191  SER191      0.2643
     56  O          7.6600   30.7360    9.8060 O.2   191  SER191     -0.2714
     57  CB         8.1090   27.5500    8.4840 C.3   191  SER191      0.2130
     58  OG         8.6850   27.3190    9.7590 O.3   191  SER191     -0.2179
     59  N          9.1080   30.2460    8.1670 N.am  192  TRP192     -0.1959
     60  CA         9.9530   31.3910    8.4720 C.3   192  TRP192      0.1771
     61  C         10.7620   31.8420    7.2680 C.2   192  TRP192      0.2620
     62  O         10.6180   31.3170    6.1660 O.2   192  TRP192     -0.2715
     63  CB        10.9190   31.0590    9.6220 C.3   192  TRP192      0.0590
     64  CG        11.8090   29.8550    9.3710 C.ar  192  TRP192      0.0006
     65  CD1       11.4770   28.5370    9.5290 C.ar  192  TRP192      0.0946
     66  CD2       13.1750   29.8720    8.9270 C.ar  192  TRP192      0.0152
     67  NE1       12.5530   27.7340    9.2150 N.ar  192  TRP192     -0.2442
     68  CE2       13.6060   28.5290    8.8410 C.ar  192  TRP192      0.0810
     69  CE3       14.0770   30.8960    8.5940 C.ar  192  TRP192      0.0012
     70  CZ2       14.9020   28.1790    8.4340 C.ar  192  TRP192      0.0191
     71  CZ3       15.3670   30.5490    8.1890 C.ar  192  TRP192      0.0001
     72  CH2       15.7650   29.2010    8.1130 C.ar  192  TRP192      0.0015
     73  N         11.6170   32.8310    7.5020 N.am  193  GLY193     -0.1940
     74  CA        12.4680   33.3530    6.4550 C.3   193  GLY193      0.2014
     75  C         13.2050   34.5530    7.0070 C.2   193  GLY193      0.2639
     76  O         12.8640   35.0400    8.0800 O.2   193  GLY193     -0.2714
     77  N         14.2270   35.0110    6.2950 N.am  194  TYR194     -0.1959
     78  CA        14.9880   36.1780    6.7180 C.3   194  TYR194      0.1771
     79  C         14.3820   37.3580    5.9690 C.2   194  TYR194      0.2620
     80  O         14.5630   37.4900    4.7570 O.2   194  TYR194     -0.2715
     81  CB        16.4660   36.0080    6.3470 C.3   194  TYR194      0.0574
     82  CG        17.3800   37.0560    6.9400 C.ar  194  TYR194     -0.0198
     83  CD1       17.2380   38.4070    6.6130 C.ar  194  TYR194     -0.0009
     84  CD2       18.3880   36.6990    7.8360 C.ar  194  TYR194     -0.0009
     85  CE1       18.0760   39.3770    7.1670 C.ar  194  TYR194      0.0417
     86  CE2       19.2300   37.6590    8.3940 C.ar  194  TYR194      0.0417
     87  CZ        19.0680   38.9940    8.0560 C.ar  194  TYR194      0.1957
     88  OH        19.8940   39.9420    8.6110 O.3   194  TYR194     -0.2866
     89  N         13.6580   38.2090    6.6880 N.am  195  GLY195     -0.1940
     90  CA        13.0140   39.3410    6.0480 C.3   195  GLY195      0.2014
     91  C         11.9380   38.8160    5.1130 C.2   195  GLY195      0.2639
     92  O         11.4740   37.6830    5.2700 O.2   195  GLY195     -0.2714
     93  N         11.5300   39.6320    4.1480 N.am  196  CYS196     -0.1967
     94  CA        10.5180   39.2170    3.1830 C.3   196  CYS196      0.1712
     95  C         10.8940   39.6830    1.7870 C.2   196  CYS196      0.2296
     96  O         11.2950   40.8300    1.5970 O.2   196  CYS196     -0.2864
     97  CB         9.1550   39.8050    3.5440 C.3   196  CYS196      0.0983
     98  SG         8.4650   39.2210    5.1190 S.3   196  CYS196     -0.0798
     99  N         17.0050   35.1430    0.0080 N.3   201  HIS201     -0.1241
    100  CA        16.3310   34.9010    1.2750 C.3   201  HIS201      0.1621
    101  C         14.9340   34.3710    0.9600 C.2   201  HIS201      0.2264
    102  O         13.9330   35.0240    1.2500 O.2   201  HIS201     -0.2867
    103  CB        16.2210   36.2000    2.0780 C.3   201  HIS201      0.0745
    104  CG        17.5130   36.6510    2.6820 C.ar  201  HIS201      0.0817
    105  ND1       17.6550   37.8750    3.3020 N.ar  201  HIS201     -0.2268
    106  CD2       18.7170   36.0400    2.7760 C.ar  201  HIS201      0.1154
    107  CE1       18.8910   37.9980    3.7500 C.ar  201  HIS201      0.1986
    108  NE2       19.5560   36.8980    3.4440 N.ar  201  HIS201     -0.2212
    109  N         11.4850   31.9820    1.1540 N.3   203  GLY203     -0.1210
    110  CA        10.7220   31.5250    2.2980 C.3   203  GLY203      0.1956
    111  C         11.0290   30.0800    2.6440 C.2   203  GLY203      0.2612
    112  O         11.3250   29.2740    1.7600 O.2   203  GLY203     -0.2717
    113  N         10.9780   29.7550    3.9330 N.am  204  VAL204     -0.1965
    114  CA        11.2130   28.3890    4.3920 C.3   204  VAL204      0.1727
    115  C          9.8610   27.8580    4.8620 C.2   204  VAL204      0.2616
    116  O          9.1350   28.5420    5.5830 O.2   204  VAL204     -0.2715
    117  CB        12.2230   28.3360    5.5560 C.3   204  VAL204      0.0290
    118  CG1       12.5240   26.8860    5.9070 C.3   204  VAL204      0.0023
    119  CG2       13.5150   29.0530    5.1640 C.3   204  VAL204      0.0023
    120  N          9.5340   26.6380    4.4570 N.am  205  TYR205     -0.1974
    121  CA         8.2490   26.0320    4.7840 C.3   205  TYR205      0.1639
    122  C          8.3490   24.6520    5.4310 C.2   205  TYR205      0.2290
    123  O          9.2690   23.8940    5.1440 O.2   205  TYR205     -0.2864
    124  CB         7.4190   25.9040    3.4990 C.3   205  TYR205      0.0560
    125  CG         7.2200   27.2110    2.7610 C.ar  205  TYR205     -0.0198
    126  CD1        8.2120   27.7320    1.9300 C.ar  205  TYR205     -0.0009
    127  CD2        6.0490   27.9440    2.9260 C.ar  205  TYR205     -0.0009
    128  CE1        8.0370   28.9610    1.2790 C.ar  205  TYR205      0.0417
    129  CE2        5.8640   29.1670    2.2840 C.ar  205  TYR205      0.0417
    130  CZ         6.8560   29.6670    1.4660 C.ar  205  TYR205      0.1957
    131  OH         6.6540   30.8730    0.8360 O.3   205  TYR205     -0.2866
@<TRIPOS>BOND
     1    11    12    1
     2    12    15    1
     3    12    13    1
     4    15    16    1
     5    14    13    2
     6    13    19   am
     7    99   100    1
     8    16    17   ar
     9    16    18   ar
    10    19    20    1
    11   131   130    1
    12   101   102    2
    13   101   100    1
    14   109   110    1
    15   100   103    1
    16   128   130   ar
    17   128   126   ar
    18   130   129   ar
    19    96    95    2
    20    20    23    1
    21    20    21    1
    22   112   111    2
    23    95    94    1
    24   126   125   ar
    25   103   104    1
    26    23    24    1
    27   129   127   ar
    28   110   111    1
    29   111   113   am
    30    22    21    2
    31   104   106   ar
    32   104   105   ar
    33   125   127   ar
    34   125   124    1
    35    21    25   am
    36   106   108   ar
    37    94    97    1
    38    94    93    1
    39   105   107   ar
    40   108   107   ar
    41   124   121    1
    42    97    98    1
    43    25    26    1
    44   113   114    1
    45    93    91   am
    46    29    26    1
    47    29    30    1
    48   114   115    1
    49   114   117    1
    50    52    50    1
    51   120   121    1
    52   120   115   am
    53    80    79    2
    54   121   122    1
    55    26    27    1
    56   115   116    2
    57    30    98    1
    58    91    92    2
    59    91    90    1
    60   123   122    2
    61   119   117    1
    62   117   118    1
    63    50    51    1
    64    50    47    1
    65    46    47    1
    66    47    48    1
    67    79    89   am
    68    79    78    1
    69    90    89    1
    70    27    28    2
    71    27    31   am
    72    62    61    2
    73    77    78    1
    74    77    75   am
    75    81    78    1
    76    81    82    1
    77    74    75    1
    78    74    73    1
    79    83    82   ar
    80    83    85   ar
    81    82    84   ar
    82    75    76    2
    83    31    32    1
    84    85    87   ar
    85    48    53   am
    86    48    49    2
    87    53    54    1
    88    61    73   am
    89    61    60    1
    90    34    33    2
    91    84    86   ar
    92    38    37    2
    93    39    37   am
    94    40    41    1
    95    87    86   ar
    96    87    88    1
    97    72    71   ar
    98    72    70   ar
    99    59    60    1
   100    59    55   am
   101    71    69   ar
   102    33    32    1
   103    37    36    1
   104    32    35    1
   105    70    68   ar
   106    60    63    1
   107    57    54    1
   108    57    58    1
   109    54    55    1
   110    69    66   ar
   111    68    66   ar
   112    68    67   ar
   113    41    42    1
   114    41    44    1
   115    55    56    2
   116    66    64   ar
   117    42    43    2
   118    67    65   ar
   119    35    36    1
   120    64    65   ar
   121    64    63    1
   122    45    44    1
   123     9    10   ar
   124     9     7   ar
   125    10     8   ar
   126     7     6   ar
   127     8     6   ar
   128     6     5    1
   129     5     2    1
   130     1     2    1
   131     2     3    1
   132     3     4    2
