@<TRIPOS>MOLECULE
tmp/2eexA00.pdb
 158 154 0 0 0
SMALL
GASTEIGER

@<TRIPOS>ATOM
      1  N         14.5360   36.2910    9.9710 N.3    38  GLY38      -0.1210
      2  CA        13.1560   35.8720    9.8370 C.3    38  GLY38       0.1956
      3  C         12.2930   36.8740    9.1040 C.2    38  GLY38       0.2612
      4  O         12.7980   37.7740    8.4350 O.2    38  GLY38      -0.2717
      5  N         10.9820   36.7250    9.2360 N.am   39  GLY39      -0.1942
      6  CA        10.0850   37.6250    8.5470 C.3    39  GLY39       0.2014
      7  C          9.5520   36.9840    7.2790 C.2    39  GLY39       0.2639
      8  O          9.9420   35.8650    6.9120 O.2    39  GLY39      -0.2714
      9  N          8.6740   37.7090    6.5980 N.am   40  ASN40      -0.1958
     10  CA         8.0280   37.2270    5.3850 C.3    40  ASN40       0.1819
     11  C          8.9170   36.5860    4.3290 C.2    40  ASN40       0.2621
     12  O          8.6060   35.5010    3.8470 O.2    40  ASN40      -0.2715
     13  CB         7.1930   38.3550    4.7600 C.3    40  ASN40       0.1195
     14  CG         5.9740   38.7060    5.6030 C.2    40  ASN40       0.2630
     15  OD1        5.5960   37.9500    6.4970 O.2    40  ASN40      -0.2716
     16  ND2        5.3460   39.8480    5.3130 N.am   40  ASN40      -0.0877
     17  N         10.0180   37.2400    3.9730 N.am   41  ARG41      -0.1977
     18  CA        10.9180   36.7050    2.9560 C.3    41  ARG41       0.1597
     19  C         11.5690   35.3500    3.2730 C.2    41  ARG41       0.2287
     20  O         12.0140   34.6570    2.3620 O.2    41  ARG41      -0.2864
     21  CB        12.0170   37.7280    2.6460 C.3    41  ARG41       0.0334
     22  CG        11.6510   38.7500    1.5760 C.3    41  ARG41       0.0492
     23  CD        11.7170   38.1320    0.1830 C.3    41  ARG41       0.2205
     24  NE        11.6240   39.1360   -0.8740 N.pl3  41  ARG41      -0.0865
     25  CZ        11.9330   38.9110   -2.1490 C.cat  41  ARG41       0.5346
     26  NH1       12.3600   37.7140   -2.5340 N.pl3  41  ARG41       0.1354
     27  NH2       11.8220   39.8850   -3.0390 N.pl3  41  ARG41       0.1354
     28  N          8.9080   37.1570   -2.3590 N.3    54  ALA54      -0.1245
     29  CA         8.3510   38.2730   -1.5990 C.3    54  ALA54       0.1562
     30  C          6.8940   38.0720   -1.1860 C.2    54  ALA54       0.2260
     31  O          6.4020   38.7420   -0.2770 O.2    54  ALA54      -0.2867
     32  CB         8.4750   39.5600   -2.4060 C.3    54  ALA54       0.0290
     33  N          4.0870   40.9840   -0.3410 N.3    57  ASP57      -0.1225
     34  CA         4.8290   42.2220   -0.1350 C.3    57  ASP57       0.1805
     35  C          5.3160   42.7780   -1.4630 C.2    57  ASP57       0.2597
     36  O          5.5630   43.9740   -1.5730 O.2    57  ASP57      -0.2718
     37  CB         6.0420   42.0080    0.7810 C.3    57  ASP57       0.1424
     38  CG         5.6560   41.8440    2.2370 C.2    57  ASP57       0.3668
     39  OD1        4.7080   42.5230    2.6870 O.co2  57  ASP57      -0.2456
     40  OD2        6.3160   41.0500    2.9400 O.co2  57  ASP57      -0.2456
     41  N          5.4620   41.9210   -2.4730 N.am   58  TRP58      -0.1976
     42  CA         5.9380   42.4030   -3.7640 C.3    58  TRP58       0.1640
     43  C          5.6090   41.5280   -4.9730 C.2    58  TRP58       0.2290
     44  O          6.4960   40.9020   -5.5590 O.2    58  TRP58      -0.2864
     45  CB         7.4490   42.6380   -3.7000 C.3    58  TRP58       0.0576
     46  CG         7.9630   43.5230   -4.7880 C.ar   58  TRP58       0.0006
     47  CD1        8.1590   43.1930   -6.1010 C.ar   58  TRP58       0.0946
     48  CD2        8.3390   44.8990   -4.6600 C.ar   58  TRP58       0.0152
     49  NE1        8.6360   44.2780   -6.7970 N.ar   58  TRP58      -0.2442
     50  CE2        8.7560   45.3390   -5.9370 C.ar   58  TRP58       0.0810
     51  CE3        8.3660   45.8030   -3.5890 C.ar   58  TRP58       0.0012
     52  CZ2        9.1970   46.6470   -6.1730 C.ar   58  TRP58       0.0191
     53  CZ3        8.8050   47.1040   -3.8230 C.ar   58  TRP58       0.0001
     54  CH2        9.2150   47.5120   -5.1070 C.ar   58  TRP58       0.0015
     55  N          7.1320   37.9060   -6.2460 N.3    61  TYR61      -0.1241
     56  CA         8.3810   37.7950   -6.9970 C.3    61  TYR61       0.1605
     57  C          9.3690   36.8060   -6.3840 C.2    61  TYR61       0.2264
     58  O          9.5980   36.8240   -5.1750 O.2    61  TYR61      -0.2867
     59  CB         9.0930   39.1490   -7.0350 C.3    61  TYR61       0.0534
     60  CG         8.8060   40.0370   -8.2240 C.ar   61  TYR61      -0.0201
     61  CD1        7.5000   40.3760   -8.5770 C.ar   61  TYR61      -0.0009
     62  CD2        9.8540   40.5940   -8.9580 C.ar   61  TYR61      -0.0009
     63  CE1        7.2480   41.2520   -9.6270 C.ar   61  TYR61       0.0417
     64  CE2        9.6120   41.4720  -10.0090 C.ar   61  TYR61       0.0417
     65  CZ         8.3110   41.7970  -10.3370 C.ar   61  TYR61       0.1957
     66  OH         8.0760   42.6720  -11.3730 O.3    61  TYR61      -0.2866
     67  N         13.1970   36.0150   -6.4410 N.3    63  ASP63      -0.1239
     68  CA        14.4330   36.6480   -6.8920 C.3    63  ASP63       0.1674
     69  C         15.5590   36.5690   -5.8730 C.2    63  ASP63       0.2266
     70  O         15.4850   35.8210   -4.8980 O.2    63  ASP63      -0.2867
     71  CB        14.1790   38.1180   -7.2370 C.3    63  ASP63       0.1410
     72  CG        13.5410   38.8810   -6.0910 C.2    63  ASP63       0.3668
     73  OD1       13.9230   38.6410   -4.9240 O.co2  63  ASP63      -0.2456
     74  OD2       12.6610   39.7300   -6.3570 O.co2  63  ASP63      -0.2456
     75  N         16.5300   38.9780   -3.8530 N.3    65  TYR65      -0.1241
     76  CA        16.3920   40.0150   -2.8390 C.3    65  TYR65       0.1605
     77  C         17.1980   39.8020   -1.5610 C.2    65  TYR65       0.2264
     78  O         17.8910   40.7130   -1.1160 O.2    65  TYR65      -0.2867
     79  CB        14.9230   40.2130   -2.4610 C.3    65  TYR65       0.0534
     80  CG        14.7300   41.2230   -1.3470 C.ar   65  TYR65      -0.0201
     81  CD1       14.8780   42.5900   -1.5790 C.ar   65  TYR65      -0.0009
     82  CD2       14.4260   40.8070   -0.0510 C.ar   65  TYR65      -0.0009
     83  CE1       14.7280   43.5200   -0.5440 C.ar   65  TYR65       0.0417
     84  CE2       14.2750   41.7240    0.9870 C.ar   65  TYR65       0.0417
     85  CZ        14.4260   43.0770    0.7340 C.ar   65  TYR65       0.1957
     86  OH        14.2650   43.9790    1.7620 O.3    65  TYR65      -0.2866
     87  N         20.9610   40.4270   -1.9690 N.3    68  GLU68      -0.1245
     88  CA        21.2110   41.8560   -2.1170 C.3    68  GLU68       0.1567
     89  C         21.0360   42.5900   -0.7930 C.2    68  GLU68       0.2260
     90  O         21.9460   43.2770   -0.3300 O.2    68  GLU68      -0.2867
     91  CB        20.2620   42.4370   -3.1720 C.3    68  GLU68       0.0388
     92  CG        20.3110   43.9540   -3.3250 C.3    68  GLU68       0.1160
     93  CD        21.6890   44.4670   -3.7050 C.2    68  GLU68       0.3649
     94  OE1       22.3170   43.8690   -4.6070 O.co2  68  GLU68      -0.2457
     95  OE2       22.1400   45.4700   -3.1090 O.co2  68  GLU68      -0.2457
     96  N          7.6120   31.4390    9.7060 N.3   179  ASN179     -0.1225
     97  CA         7.1810   32.7480   10.1760 C.3   179  ASN179      0.1785
     98  C          5.6780   32.9350    9.9610 C.2   179  ASN179      0.2597
     99  O          5.1500   32.6250    8.8910 O.2   179  ASN179     -0.2718
    100  CB         7.9700   33.8300    9.4120 C.3   179  ASN179      0.1169
    101  CG         7.5610   35.2530    9.7840 C.2   179  ASN179      0.2627
    102  OD1        6.8740   35.9400    9.0190 O.2   179  ASN179     -0.2716
    103  ND2        7.9870   35.7040   10.9600 N.am  179  ASN179     -0.0877
    104  N          5.0060   33.4240   11.0000 N.am  180  GLN180     -0.1979
    105  CA         3.5690   33.7140   10.9810 C.3   180  GLN180      0.1601
    106  C          2.7140   32.7580   10.1540 C.2   180  GLN180      0.2287
    107  O          2.1290   33.1420    9.1380 O.2   180  GLN180     -0.2864
    108  CB         3.3730   35.1520   10.5040 C.3   180  GLN180      0.0394
    109  CG         4.3530   36.1010   11.1870 C.3   180  GLN180      0.0908
    110  CD         4.0510   37.5620   10.9560 C.2   180  GLN180      0.2608
    111  OE1        3.7620   37.9850    9.8320 O.2   180  GLN180     -0.2717
    112  NE2        4.1390   38.3540   12.0200 N.am  180  GLN180     -0.0878
    113  N          2.9960   43.5220   17.9640 N.3   279  TYR279     -0.1241
    114  CA         2.9840   44.8830   17.4490 C.3   279  TYR279      0.1605
    115  C          1.7990   45.4790   18.1800 C.2   279  TYR279      0.2264
    116  O          0.6610   45.0740   17.9570 O.2   279  TYR279     -0.2867
    117  CB         2.7510   44.8820   15.9410 C.3   279  TYR279      0.0534
    118  CG         3.9480   44.3900   15.1620 C.ar  279  TYR279     -0.0201
    119  CD1        5.0630   45.2070   14.9780 C.ar  279  TYR279     -0.0009
    120  CD2        3.9650   43.1140   14.6040 C.ar  279  TYR279     -0.0009
    121  CE1        6.1680   44.7670   14.2520 C.ar  279  TYR279      0.0417
    122  CE2        5.0660   42.6610   13.8740 C.ar  279  TYR279      0.0417
    123  CZ         6.1610   43.4950   13.7010 C.ar  279  TYR279      0.1957
    124  OH         7.2370   43.0710   12.9540 O.3   279  TYR279     -0.2866
    125  N          3.1720   51.6380   13.0180 N.3   291  PHE291     -0.1241
    126  CA         2.6910   51.5530   11.6380 C.3   291  PHE291      0.1605
    127  C          2.1660   52.8660   11.0660 C.2   291  PHE291      0.2264
    128  O          0.9570   53.0690   10.9590 O.2   291  PHE291     -0.2867
    129  CB         1.5950   50.4900   11.5110 C.3   291  PHE291      0.0534
    130  CG         2.0440   49.1060   11.8800 C.ar  291  PHE291     -0.0203
    131  CD1        3.3150   48.6580   11.5370 C.ar  291  PHE291     -0.0042
    132  CD2        1.1880   48.2420   12.5520 C.ar  291  PHE291     -0.0042
    133  CE1        3.7260   47.3690   11.8580 C.ar  291  PHE291     -0.0003
    134  CE2        1.5900   46.9490   12.8770 C.ar  291  PHE291     -0.0003
    135  CZ         2.8600   46.5110   12.5300 C.ar  291  PHE291     -0.0000
    136  N          9.4630   39.7020   17.2150 N.3   353  GLU353     -0.1245
    137  CA         9.1200   40.8660   16.4060 C.3   353  GLU353      0.1567
    138  C          8.2460   41.7920   17.2330 C.2   353  GLU353      0.2260
    139  O          7.2800   41.3560   17.8560 O.2   353  GLU353     -0.2867
    140  CB         8.3660   40.4770   15.1270 C.3   353  GLU353      0.0388
    141  CG         9.2500   39.9860   13.9940 C.3   353  GLU353      0.1160
    142  CD         8.4730   39.7480   12.7130 C.2   353  GLU353      0.3649
    143  OE1        7.4390   40.4230   12.5070 O.co2 353  GLU353     -0.2457
    144  OE2        8.8990   38.8950   11.9070 O.co2 353  GLU353     -0.2457
    145  N         11.8250   44.7970   15.2630 N.3   386  TRP386     -0.1241
    146  CA        11.6740   44.7860   13.8150 C.3   386  TRP386      0.1605
    147  C         11.5720   46.2360   13.3600 C.2   386  TRP386      0.2264
    148  O         10.6110   46.9320   13.6910 O.2   386  TRP386     -0.2867
    149  CB        10.4200   44.0110   13.3840 C.3   386  TRP386      0.0550
    150  CG        10.2730   43.9350   11.8800 C.ar  386  TRP386      0.0003
    151  CD1        9.7420   44.8880   11.0590 C.ar  386  TRP386      0.0946
    152  CD2       10.7430   42.8840   11.0230 C.ar  386  TRP386      0.0152
    153  NE1        9.8540   44.5000    9.7420 N.ar  386  TRP386     -0.2442
    154  CE2       10.4670   43.2740    9.6920 C.ar  386  TRP386      0.0810
    155  CE3       11.3740   41.6510   11.2510 C.ar  386  TRP386      0.0012
    156  CZ2       10.8010   42.4750    8.5880 C.ar  386  TRP386      0.0191
    157  CZ3       11.7070   40.8540   10.1550 C.ar  386  TRP386      0.0001
    158  CH2       11.4200   41.2720    8.8380 C.ar  386  TRP386      0.0015
@<TRIPOS>BOND
     1    66    65    1
     2    65    64   ar
     3    65    63   ar
     4    64    62   ar
     5    63    61   ar
     6    62    60   ar
     7    61    60   ar
     8    60    59    1
     9    71    68    1
    10    71    72    1
    11    59    56    1
    12    56    57    1
    13    56    55    1
    14    68    67    1
    15    68    69    1
    16    49    47   ar
    17    49    50   ar
    18    57    58    2
    19    74    72   ar
    20    52    50   ar
    21    52    54   ar
    22    47    46   ar
    23    72    73   ar
    24    50    48   ar
    25    69    70    2
    26    44    43    2
    27    54    53   ar
    28    43    42    1
    29    46    48   ar
    30    46    45    1
    31    48    51   ar
    32    94    93   ar
    33    75    76    1
    34    53    51   ar
    35    42    45    1
    36    42    41    1
    37    93    92    1
    38    93    95   ar
    39    92    91    1
    40    91    88    1
    41    27    25    1
    42    76    79    1
    43    76    77    1
    44    26    25    1
    45    41    35   am
    46    79    80    1
    47    32    29    1
    48    28    29    1
    49    25    24    2
    50    88    87    1
    51    88    89    1
    52    29    30    1
    53    81    80   ar
    54    81    83   ar
    55    36    35    2
    56    77    78    2
    57    35    34    1
    58    80    82   ar
    59    30    31    2
    60    24    23    1
    61    89    90    2
    62    83    85   ar
    63    33    34    1
    64    34    37    1
    65    82    84   ar
    66    23    22    1
    67    85    84   ar
    68    85    86    1
    69    37    38    1
    70    22    21    1
    71    38    39   ar
    72    38    40   ar
    73    20    19    2
    74    21    18    1
    75    18    19    1
    76    18    17    1
    77    12    11    2
    78    17    11   am
    79    11    10    1
    80    13    10    1
    81    13    14    1
    82    16    14   am
    83    10     9    1
    84    14    15    2
    85     9     7   am
    86     8     7    2
    87     7     6    1
    88     4     3    2
    89     6     5    1
    90   156   158   ar
    91   156   154   ar
    92   158   157   ar
    93    99    98    2
    94   102   101    2
    95     3     5   am
    96     3     2    1
    97   107   106    2
    98   100   101    1
    99   100    97    1
   100   154   153   ar
   101   154   152   ar
   102    96    97    1
   103   153   151   ar
   104   101   103   am
   105   111   110    2
   106     2     1    1
   107    98    97    1
   108    98   104   am
   109   106   105    1
   110   157   155   ar
   111   108   105    1
   112   108   109    1
   113   110   109    1
   114   110   112   am
   115   128   127    2
   116   105   104    1
   117   152   155   ar
   118   152   150   ar
   119   151   150   ar
   120   127   126    1
   121   129   126    1
   122   129   130    1
   123   131   133   ar
   124   131   130   ar
   125   126   125    1
   126   133   135   ar
   127   150   149    1
   128   130   132   ar
   129   144   142   ar
   130   143   142   ar
   131   135   134   ar
   132   132   134   ar
   133   142   141    1
   134   124   123    1
   135   147   148    2
   136   147   146    1
   137   149   146    1
   138   123   122   ar
   139   123   121   ar
   140   146   145    1
   141   122   120   ar
   142   141   140    1
   143   121   119   ar
   144   120   118   ar
   145   119   118   ar
   146   140   137    1
   147   118   117    1
   148   117   114    1
   149   137   136    1
   150   137   138    1
   151   138   139    2
   152   114   113    1
   153   114   115    1
   154   116   115    2
