@<TRIPOS>MOLECULE
tmp/2ef1B00.pdb
 107 107 0 0 0
SMALL
GASTEIGER

@<TRIPOS>ATOM
      1  N         18.5550   -5.3070    9.2570 N.3    81  TRP81      -0.1227
      2  CA        19.6890   -5.8820    8.5500 C.3    81  TRP81       0.1737
      3  C         19.2320   -6.7010    7.3620 C.2    81  TRP81       0.2596
      4  O         18.0560   -7.0490    7.2470 O.2    81  TRP81      -0.2718
      5  CB        20.5050   -6.7850    9.4800 C.3    81  TRP81       0.0564
      6  CG        19.7140   -7.9440   10.0090 C.ar   81  TRP81       0.0003
      7  CD1       18.8520   -7.9330   11.0720 C.ar   81  TRP81       0.0946
      8  CD2       19.6440   -9.2650    9.4520 C.ar   81  TRP81       0.0152
      9  NE1       18.2470   -9.1610   11.2060 N.ar   81  TRP81      -0.2442
     10  CE2       18.7140   -9.9970   10.2250 C.ar   81  TRP81       0.0810
     11  CE3       20.2750   -9.8990    8.3710 C.ar   81  TRP81       0.0012
     12  CZ2       18.3980  -11.3330    9.9510 C.ar   81  TRP81       0.0191
     13  CZ3       19.9590  -11.2300    8.0970 C.ar   81  TRP81       0.0001
     14  CH2       19.0280  -11.9300    8.8860 C.ar   81  TRP81       0.0015
     15  N         20.1800   -7.0180    6.4900 N.am   82  SER82      -0.1938
     16  CA        19.8920   -7.8180    5.3140 C.3    82  SER82       0.2055
     17  C         21.1090   -8.5860    4.8120 C.2    82  SER82       0.2642
     18  O         22.1500   -8.0030    4.5030 O.2    82  SER82      -0.2714
     19  CB        19.3410   -6.9440    4.1850 C.3    82  SER82       0.2130
     20  OG        19.2160   -7.7120    3.0030 O.3    82  SER82      -0.2179
     21  N         20.9540   -9.9060    4.7520 N.am   83  ARG83      -0.1977
     22  CA        21.9830  -10.8260    4.2790 C.3    83  ARG83       0.1597
     23  C         23.3510  -10.6870    4.9290 C.2    83  ARG83       0.2287
     24  O         24.3800  -10.7240    4.2590 O.2    83  ARG83      -0.2864
     25  CB        22.0850  -10.7150    2.7590 C.3    83  ARG83       0.0334
     26  CG        20.7490  -11.0280    2.0960 C.3    83  ARG83       0.0492
     27  CD        20.7620  -10.8770    0.5970 C.3    83  ARG83       0.2205
     28  NE        19.4040  -10.9810    0.0660 N.pl3  83  ARG83      -0.0865
     29  CZ        19.0790  -10.7610   -1.2040 C.cat  83  ARG83       0.5346
     30  NH1       20.0180  -10.4260   -2.0820 N.pl3  83  ARG83       0.1354
     31  NH2       17.8130  -10.8590   -1.5920 N.pl3  83  ARG83       0.1354
     32  N         14.9970  -19.2060   11.7410 N.3   112  ASP112     -0.1225
     33  CA        15.5050  -20.3870   11.0470 C.3   112  ASP112      0.1805
     34  C         14.6250  -21.6220   11.0810 C.2   112  ASP112      0.2598
     35  O         15.1030  -22.7250   10.8380 O.2   112  ASP112     -0.2718
     36  CB        16.8830  -20.7750   11.5770 C.3   112  ASP112      0.1424
     37  CG        17.9660  -19.8290   11.1260 C.2   112  ASP112      0.3668
     38  OD1       17.9320  -19.4050    9.9470 O.co2 112  ASP112     -0.2456
     39  OD2       18.8600  -19.5250   11.9420 O.co2 112  ASP112     -0.2456
     40  N         13.3470  -21.4510   11.3810 N.am  113  LEU113     -0.1966
     41  CA        12.4520  -22.5930   11.4230 C.3   113  LEU113      0.1728
     42  C         11.5500  -22.5830   10.1960 C.2   113  LEU113      0.2616
     43  O         11.4340  -21.5720    9.5120 O.2   113  LEU113     -0.2715
     44  CB        11.6160  -22.5730   12.7120 C.3   113  LEU113      0.0311
     45  CG        12.4170  -22.7240   14.0140 C.3   113  LEU113      0.0022
     46  CD1       11.4950  -22.7200   15.2100 C.3   113  LEU113      0.0001
     47  CD2       13.1990  -24.0130   13.9730 C.3   113  LEU113      0.0001
     48  N         10.9360  -23.7240    9.9100 N.am  114  THR114     -0.1951
     49  CA        10.0330  -23.8560    8.7760 C.3   114  THR114      0.1897
     50  C          8.8040  -24.5900    9.2930 C.2   114  THR114      0.2313
     51  O          8.9240  -25.5070   10.1040 O.2   114  THR114     -0.2863
     52  CB        10.6770  -24.6780    7.6310 C.3   114  THR114      0.1794
     53  OG1       11.7970  -23.9650    7.0900 O.3   114  THR114     -0.2208
     54  CG2        9.6700  -24.9240    6.5210 C.3   114  THR114      0.0378
     55  N          5.1340  -19.4840    6.7020 N.3   141  VAL141     -0.1245
     56  CA         6.4130  -18.8430    6.9540 C.3   141  VAL141      0.1561
     57  C          6.4850  -17.4380    6.3530 C.2   141  VAL141      0.2260
     58  O          6.6380  -16.4580    7.0790 O.2   141  VAL141     -0.2867
     59  CB         7.5680  -19.7130    6.4070 C.3   141  VAL141      0.0252
     60  CG1        8.9040  -18.9860    6.5650 C.3   141  VAL141      0.0019
     61  CG2        7.5900  -21.0540    7.1510 C.3   141  VAL141      0.0019
     62  N          6.8280  -13.7000    8.5970 N.3   145  TRP145     -0.1241
     63  CA         7.9210  -12.7420    8.5370 C.3   145  TRP145      0.1605
     64  C          7.5790  -11.3630    8.0000 C.2   145  TRP145      0.2264
     65  O          8.0600  -10.3650    8.5300 O.2   145  TRP145     -0.2867
     66  CB         9.0960  -13.3270    7.7510 C.3   145  TRP145      0.0550
     67  CG         9.7670  -14.4380    8.4840 C.ar  145  TRP145      0.0003
     68  CD1        9.7790  -15.7590    8.1410 C.ar  145  TRP145      0.0946
     69  CD2       10.4850  -14.3390    9.7220 C.ar  145  TRP145      0.0152
     70  NE1       10.4550  -16.4880    9.0850 N.ar  145  TRP145     -0.2442
     71  CE2       10.9000  -15.6420   10.0670 C.ar  145  TRP145      0.0810
     72  CE3       10.8150  -13.2760   10.5720 C.ar  145  TRP145      0.0012
     73  CZ2       11.6300  -15.9130   11.2300 C.ar  145  TRP145      0.0191
     74  CZ3       11.5380  -13.5460   11.7270 C.ar  145  TRP145      0.0001
     75  CH2       11.9380  -14.8550   12.0440 C.ar  145  TRP145      0.0015
     76  N         14.6750   -6.6420   -3.7950 N.3   175  ASN175     -0.1225
     77  CA        13.9740   -7.9170   -3.7410 C.3   175  ASN175      0.1785
     78  C         14.3030   -8.6730   -2.4490 C.2   175  ASN175      0.2598
     79  O         14.4660   -9.8940   -2.4480 O.2   175  ASN175     -0.2718
     80  CB        14.3360   -8.7640   -4.9660 C.3   175  ASN175      0.1169
     81  CG        13.6040  -10.0910   -4.9930 C.2   175  ASN175      0.2627
     82  OD1       12.3790  -10.1380   -4.8820 O.2   175  ASN175     -0.2716
     83  ND2       14.3520  -11.1790   -5.1460 N.am  175  ASN175     -0.0877
     84  N         14.4070   -7.9330   -1.3510 N.am  176  SER176     -0.1938
     85  CA        14.6930   -8.5300   -0.0530 C.3   176  SER176      0.2055
     86  C         13.5900   -8.1000    0.8940 C.2   176  SER176      0.2644
     87  O         12.7660   -7.2530    0.5450 O.2   176  SER176     -0.2714
     88  CB        16.0400   -8.0480    0.4850 C.3   176  SER176      0.2130
     89  OG        15.9740   -6.6920    0.8880 O.3   176  SER176     -0.2179
     90  N         13.5660   -8.6790    2.0900 N.am  177  THR177     -0.1936
     91  CA        12.5440   -8.3160    3.0630 C.3   177  THR177      0.2028
     92  C         12.7280   -6.8510    3.4540 C.2   177  THR177      0.2642
     93  O         11.7700   -6.0790    3.5040 O.2   177  THR177     -0.2714
     94  CB        12.6350   -9.1950    4.3130 C.3   177  THR177      0.1808
     95  OG1       12.4170  -10.5630    3.9480 O.3   177  THR177     -0.2208
     96  CG2       11.5900   -8.7710    5.3310 C.3   177  THR177      0.0379
     97  N         13.9700   -6.4710    3.7220 N.am  178  PHE178     -0.1973
     98  CA        14.2700   -5.0980    4.0860 C.3   178  PHE178      0.1639
     99  C         13.8220   -4.1740    2.9610 C.2   178  PHE178      0.2290
    100  O         13.0990   -3.2050    3.1890 O.2   178  PHE178     -0.2864
    101  CB        15.7780   -4.9210    4.3220 C.3   178  PHE178      0.0560
    102  CG        16.2190   -3.4850    4.3700 C.ar  178  PHE178     -0.0200
    103  CD1       15.8940   -2.6760    5.4570 C.ar  178  PHE178     -0.0042
    104  CD2       16.9240   -2.9270    3.3080 C.ar  178  PHE178     -0.0042
    105  CE1       16.2630   -1.3310    5.4850 C.ar  178  PHE178     -0.0003
    106  CE2       17.2980   -1.5800    3.3250 C.ar  178  PHE178     -0.0003
    107  CZ        16.9660   -0.7820    4.4140 C.ar  178  PHE178     -0.0000
@<TRIPOS>BOND
     1    83    81   am
     2    81    80    1
     3    81    82    2
     4    80    77    1
     5    76    77    1
     6    77    78    1
     7    78    79    2
     8    78    84   am
     9    30    29    1
    10    31    29    1
    11    84    85    1
    12    29    28    2
    13    85    88    1
    14    85    86    1
    15    28    27    1
    16    88    89    1
    17    87    86    2
    18    27    26    1
    19    86    90   am
    20    90    91    1
    21    26    25    1
    22    25    22    1
    23    99   100    2
    24    99    98    1
    25    20    19    1
    26    91    92    1
    27    91    94    1
    28   104   106   ar
    29   104   102   ar
    30   106   107   ar
    31    92    93    2
    32    92    97   am
    33    97    98    1
    34    95    94    1
    35    98   101    1
    36    19    16    1
    37    24    23    2
    38    22    21    1
    39    22    23    1
    40    94    96    1
    41   101   102    1
    42   102   103   ar
    43   107   105   ar
    44    18    17    2
    45    21    17   am
    46    17    16    1
    47    16    15    1
    48   103   105   ar
    49    57    56    1
    50    57    58    2
    51    59    60    1
    52    59    56    1
    53    59    61    1
    54    15     3   am
    55    54    52    1
    56    55    56    1
    57    53    52    1
    58     4     3    2
    59     3     2    1
    60    52    49    1
    61    66    67    1
    62    66    63    1
    63    64    65    2
    64    64    63    1
    65    13    11   ar
    66    13    14   ar
    67    68    67   ar
    68    68    70   ar
    69    11     8   ar
    70    67    69   ar
    71    63    62    1
    72     2     1    1
    73     2     5    1
    74    49    50    1
    75    49    48    1
    76    14    12   ar
    77    70    71   ar
    78    50    51    2
    79     8     6   ar
    80     8    10   ar
    81     5     6    1
    82    43    42    2
    83    69    71   ar
    84    69    72   ar
    85    48    42   am
    86    38    37   ar
    87    12    10   ar
    88     6     7   ar
    89    71    73   ar
    90    42    41    1
    91    10     9   ar
    92    72    74   ar
    93    35    34    2
    94    33    34    1
    95    33    36    1
    96    33    32    1
    97     7     9   ar
    98    34    40   am
    99    37    36    1
   100    37    39   ar
   101    73    75   ar
   102    40    41    1
   103    41    44    1
   104    74    75   ar
   105    44    45    1
   106    47    45    1
   107    45    46    1
