@<TRIPOS>MOLECULE
tmp/2ef2A00.pdb
 182 172 0 0 0
SMALL
GASTEIGER

@<TRIPOS>ATOM
      1  N          6.4180   -2.8460    7.2880 N.3    30  LEU30      -0.1245
      2  CA         5.5670   -3.2760    6.1650 C.3    30  LEU30       0.1561
      3  C          5.3260   -4.7810    6.1130 C.2    30  LEU30       0.2260
      4  O          4.1830   -5.2360    5.9140 O.2    30  LEU30      -0.2867
      5  CB         6.1200   -2.7480    4.8280 C.3    30  LEU30       0.0270
      6  CG         5.9340   -1.2640    4.5540 C.3    30  LEU30       0.0019
      7  CD1        6.2810   -0.9370    3.1040 C.3    30  LEU30       0.0001
      8  CD2        4.5060   -0.8310    4.8660 C.3    30  LEU30       0.0001
      9  N          2.8640   -5.5100    8.8720 N.3    33  LEU33      -0.1231
     10  CA         1.5470   -5.0960    8.3870 C.3    33  LEU33       0.1693
     11  C          0.9290   -6.1210    7.4350 C.2    33  LEU33       0.2592
     12  O         -0.1970   -6.5780    7.6410 O.2    33  LEU33      -0.2718
     13  CB         1.6490   -3.7230    7.7140 C.3    33  LEU33       0.0284
     14  CG         0.4040   -3.2570    6.9300 C.3    33  LEU33       0.0019
     15  CD1       -0.7920   -2.9960    7.8540 C.3    33  LEU33       0.0001
     16  CD2        0.7730   -2.0230    6.1480 C.3    33  LEU33       0.0001
     17  N          1.6770   -6.4750    6.3940 N.am   34  PHE34      -0.1976
     18  CA         1.1530   -7.3570    5.3450 C.3    34  PHE34       0.1639
     19  C          0.9330   -8.7930    5.8860 C.2    34  PHE34       0.2290
     20  O          0.0350   -9.4860    5.4130 O.2    34  PHE34      -0.2864
     21  CB         2.0810   -7.3660    4.0900 C.3    34  PHE34       0.0560
     22  CG         2.2910   -6.0000    3.4280 C.ar   34  PHE34      -0.0200
     23  CD1        1.2710   -5.0420    3.3780 C.ar   34  PHE34      -0.0042
     24  CD2        3.5080   -5.7020    2.7940 C.ar   34  PHE34      -0.0042
     25  CE1        1.4850   -3.7850    2.7520 C.ar   34  PHE34      -0.0003
     26  CE2        3.7330   -4.4370    2.1590 C.ar   34  PHE34      -0.0003
     27  CZ         2.6900   -3.4920    2.1420 C.ar   34  PHE34      -0.0000
     28  N         -3.1270   -2.7600   -2.8370 N.3    44  PHE44      -0.1241
     29  CA        -1.8640   -2.1360   -3.2120 C.3    44  PHE44       0.1605
     30  C         -1.3060   -2.5960   -4.5540 C.2    44  PHE44       0.2264
     31  O         -0.5950   -3.6050   -4.6510 O.2    44  PHE44      -0.2867
     32  CB        -0.8200   -2.3250   -2.1020 C.3    44  PHE44       0.0534
     33  CG        -1.1910   -1.6720   -0.7830 C.ar   44  PHE44      -0.0203
     34  CD1       -1.1860   -2.4020    0.3920 C.ar   44  PHE44      -0.0042
     35  CD2       -1.5460   -0.3290   -0.7240 C.ar   44  PHE44      -0.0042
     36  CE1       -1.5240   -1.8040    1.6090 C.ar   44  PHE44      -0.0003
     37  CE2       -1.8900    0.2730    0.4900 C.ar   44  PHE44      -0.0003
     38  CZ        -1.8690   -0.4620    1.6540 C.ar   44  PHE44      -0.0000
     39  N          2.3560   -3.9080   -4.5080 N.3    47  PHE47      -0.1241
     40  CA         2.8050   -4.9000   -3.5180 C.3    47  PHE47       0.1605
     41  C          2.1110   -6.2390   -3.6680 C.2    47  PHE47       0.2264
     42  O          2.5190   -7.2470   -3.0780 O.2    47  PHE47      -0.2867
     43  CB         2.5590   -4.3990   -2.0820 C.3    47  PHE47       0.0534
     44  CG         3.2320   -3.1010   -1.7650 C.ar   47  PHE47      -0.0203
     45  CD1        4.5860   -2.9280   -2.0170 C.ar   47  PHE47      -0.0042
     46  CD2        2.5080   -2.0520   -1.2020 C.ar   47  PHE47      -0.0042
     47  CE1        5.2010   -1.7270   -1.7260 C.ar   47  PHE47      -0.0003
     48  CE2        3.1210   -0.8470   -0.9040 C.ar   47  PHE47      -0.0003
     49  CZ         4.4760   -0.6910   -1.1680 C.ar   47  PHE47      -0.0000
     50  N          9.2110    1.9490   -0.3460 N.3    65  HIS65      -0.1241
     51  CA         8.0430    2.5510    0.2450 C.3    65  HIS65       0.1621
     52  C          8.1310    2.6370    1.7640 C.2    65  HIS65       0.2264
     53  O          7.6360    3.6100    2.3280 O.2    65  HIS65      -0.2867
     54  CB         6.7220    1.9000   -0.1660 C.3    65  HIS65       0.0745
     55  CG         5.5590    2.8260    0.0430 C.ar   65  HIS65       0.0817
     56  ND1        5.4550    4.0470   -0.6000 N.ar   65  HIS65      -0.2268
     57  CD2        4.5170    2.7710    0.9100 C.ar   65  HIS65       0.1154
     58  CE1        4.3700    4.6810   -0.1740 C.ar   65  HIS65       0.1986
     59  NE2        3.7870    3.9290    0.7430 N.ar   65  HIS65      -0.2212
     60  N          9.7140    5.8540    2.4790 N.3    68  THR68      -0.1203
     61  CA         8.8310    6.9640    2.2480 C.3    68  THR68       0.1994
     62  C          7.9130    7.1470    3.4260 C.2    68  THR68       0.2617
     63  O          7.8050    8.2560    3.9650 O.2    68  THR68      -0.2717
     64  CB         8.0120    6.7850    0.9650 C.3    68  THR68       0.1784
     65  OG1        8.9110    6.7680   -0.1380 O.3    68  THR68      -0.2211
     66  CG2        7.0880    8.0010    0.7790 C.3    68  THR68       0.0376
     67  N          7.2690    6.0550    3.8310 N.am   69  VAL69      -0.1979
     68  CA         6.3250    6.0610    4.9410 C.3    69  VAL69       0.1595
     69  C          6.9520    6.6440    6.2350 C.2    69  VAL69       0.2287
     70  O          6.3870    7.5570    6.8650 O.2    69  VAL69      -0.2864
     71  CB         5.7690    4.6260    5.1430 C.3    69  VAL69       0.0276
     72  CG1        5.0300    4.4950    6.4660 C.3    69  VAL69       0.0022
     73  CG2        4.8330    4.2990    3.9840 C.3    69  VAL69       0.0022
     74  N          6.3580   10.1460    8.2340 N.3    73  LEU73      -0.1245
     75  CA         5.9220   10.0690    9.6260 C.3    73  LEU73       0.1561
     76  C          6.8460   10.7710   10.6020 C.2    73  LEU73       0.2260
     77  O          6.3910   11.4320   11.5200 O.2    73  LEU73      -0.2867
     78  CB         5.7110    8.6070   10.0640 C.3    73  LEU73       0.0270
     79  CG         5.2060    8.4440   11.5100 C.3    73  LEU73       0.0019
     80  CD1        3.8990    9.1940   11.6690 C.3    73  LEU73       0.0001
     81  CD2        5.0230    6.9300   11.8960 C.3    73  LEU73       0.0001
     82  N         -0.2080   14.7710    2.8770 N.3    90  LEU90      -0.1231
     83  CA        -0.2780   13.3300    3.0500 C.3    90  LEU90       0.1693
     84  C         -1.7430   12.8320    3.0140 C.2    90  LEU90       0.2591
     85  O         -2.0310   11.8180    2.3480 O.2    90  LEU90      -0.2718
     86  CB         0.4670   12.9500    4.3300 C.3    90  LEU90       0.0284
     87  CG         0.6270   11.5190    4.8440 C.3    90  LEU90       0.0019
     88  CD1        2.1090   11.1160    4.9790 C.3    90  LEU90       0.0001
     89  CD2       -0.0430   11.4090    6.1750 C.3    90  LEU90       0.0001
     90  N         -2.6610   13.5720    3.6540 N.am   91  ALA91      -0.1980
     91  CA        -4.1130   13.2600    3.6040 C.3    91  ALA91       0.1597
     92  C         -4.7580   13.3050    2.2210 C.2    91  ALA91       0.2287
     93  O         -5.3080   12.2910    1.7760 O.2    91  ALA91      -0.2864
     94  CB        -4.8970   14.1510    4.5570 C.3    91  ALA91       0.0319
     95  N         -3.5670   13.2450   -0.6330 N.3    93  SER93      -0.1202
     96  CA        -2.9300   12.2500   -1.5210 C.3    93  SER93       0.2020
     97  C         -3.4960   10.8520   -1.3140 C.2    93  SER93       0.2618
     98  O         -3.7390   10.1190   -2.2890 O.2    93  SER93      -0.2717
     99  CB        -1.4160   12.2350   -1.3340 C.3    93  SER93       0.2103
    100  OG        -0.9660   11.1740   -0.5010 O.3    93  SER93      -0.2182
    101  N         -3.6950   10.4800   -0.0500 N.am   94  HIS94      -0.1975
    102  CA        -4.2980    9.1860    0.2740 C.3    94  HIS94       0.1656
    103  C         -5.7880    9.1490    0.0250 C.2    94  HIS94       0.2291
    104  O         -6.3280    8.0900   -0.3050 O.2    94  HIS94      -0.2864
    105  CB        -4.0220    8.7910    1.7100 C.3    94  HIS94       0.0771
    106  CG        -2.6510    8.2290    1.9020 C.ar   94  HIS94       0.0820
    107  ND1       -1.5220    9.0140    1.8440 N.ar   94  HIS94      -0.2267
    108  CD2       -2.2240    6.9610    2.1100 C.ar   94  HIS94       0.1154
    109  CE1       -0.4540    8.2580    2.0250 C.ar   94  HIS94       0.1986
    110  NE2       -0.8520    7.0070    2.1840 N.ar   94  HIS94      -0.2212
    111  N         -6.4570    9.1530   -3.9400 N.3    97  LYS97      -0.1245
    112  CA        -6.0360    7.7920   -4.3140 C.3    97  LYS97       0.1561
    113  C         -5.0280    7.2580   -3.2910 C.2    97  LYS97       0.2260
    114  O         -3.9670    6.7190   -3.6330 O.2    97  LYS97      -0.2867
    115  CB        -5.4670    7.7360   -5.7400 C.3    97  LYS97       0.0271
    116  CG        -5.2410    6.3090   -6.2760 C.3    97  LYS97       0.0035
    117  CD        -5.5890    6.1850   -7.7600 C.3    97  LYS97       0.0206
    118  CE        -6.9910    5.5910   -7.9600 C.3    97  LYS97       0.1093
    119  NZ        -8.0970    6.3950   -7.3430 N.3    97  LYS97      -0.1314
    120  N         -7.5170    4.7700    0.6310 N.3    99  ILE99      -0.1245
    121  CA        -6.9780    3.9320    1.6890 C.3    99  ILE99       0.1561
    122  C         -7.8700    4.1310    2.8810 C.2    99  ILE99       0.2260
    123  O         -7.9190    5.2510    3.4230 O.2    99  ILE99      -0.2867
    124  CB        -5.5200    4.3920    2.0410 C.3    99  ILE99       0.0252
    125  CG1       -4.5390    3.9980    0.9210 C.3    99  ILE99       0.0019
    126  CG2       -5.0630    3.8690    3.4170 C.3    99  ILE99       0.0019
    127  CD1       -4.7530    2.5950    0.3290 C.3    99  ILE99       0.0001
    128  N         -9.0760    4.8040    6.3650 N.3   101  ILE101     -0.1245
    129  CA        -8.5210    5.2320    7.6510 C.3   101  ILE101      0.1561
    130  C         -8.1770    4.1090    8.6110 C.2   101  ILE101      0.2260
    131  O         -7.1460    4.1820    9.2870 O.2   101  ILE101     -0.2867
    132  CB        -9.4310    6.3040    8.3180 C.3   101  ILE101      0.0252
    133  CG1       -8.8180    7.6850    8.1010 C.3   101  ILE101      0.0019
    134  CG2       -9.5760    6.0570    9.8320 C.3   101  ILE101      0.0019
    135  CD1       -8.6230    8.0130    6.6390 C.3   101  ILE101      0.0001
    136  N         -4.6550    2.7560    8.8940 N.3   104  LEU104     -0.1245
    137  CA        -3.7910    3.5220    9.8080 C.3   104  LEU104      0.1561
    138  C         -3.6740    2.8510   11.1730 C.2   104  LEU104      0.2260
    139  O         -2.6240    2.9220   11.8110 O.2   104  LEU104     -0.2867
    140  CB        -4.3270    4.9490    9.9930 C.3   104  LEU104      0.0270
    141  CG        -3.8930    6.0100    9.0070 C.3   104  LEU104      0.0019
    142  CD1       -4.5060    5.6310    7.7360 C.3   104  LEU104      0.0001
    143  CD2       -4.3180    7.4390    9.4030 C.3   104  LEU104      0.0001
    144  N         -1.2890   -0.1140   10.6030 N.3   107  ILE107     -0.1245
    145  CA         0.0780    0.4240   10.4380 C.3   107  ILE107      0.1561
    146  C          0.6470    0.8150   11.8280 C.2   107  ILE107      0.2260
    147  O          1.7860    0.5470   12.1600 O.2   107  ILE107     -0.2867
    148  CB         0.0570    1.6420    9.4570 C.3   107  ILE107      0.0252
    149  CG1       -0.1550    1.1660    8.0120 C.3   107  ILE107      0.0019
    150  CG2        1.3970    2.4770    9.5290 C.3   107  ILE107      0.0019
    151  CD1       -0.8550    2.1890    7.0710 C.3   107  ILE107      0.0001
    152  N         -2.2620   11.5010   15.2790 N.3   138  PHE138     -0.1241
    153  CA        -2.0490   11.4430   13.8280 C.3   138  PHE138      0.1605
    154  C         -3.2860   10.8990   13.0750 C.2   138  PHE138      0.2264
    155  O         -3.7900   11.5360   12.1470 O.2   138  PHE138     -0.2867
    156  CB        -0.7760   10.6300   13.5640 C.3   138  PHE138      0.0534
    157  CG        -0.5720   10.2240   12.1240 C.ar  138  PHE138     -0.0203
    158  CD1       -0.3950   11.1860   11.1240 C.ar  138  PHE138     -0.0042
    159  CD2       -0.5430    8.8730   11.7860 C.ar  138  PHE138     -0.0042
    160  CE1       -0.1680   10.8000    9.7760 C.ar  138  PHE138     -0.0003
    161  CE2       -0.3210    8.4660   10.4580 C.ar  138  PHE138     -0.0003
    162  CZ        -0.1310    9.4280    9.4500 C.ar  138  PHE138     -0.0000
    163  N         -5.7490   13.0110   10.6140 N.3   142  ILE142     -0.1245
    164  CA        -5.9480   12.5410    9.2400 C.3   142  ILE142      0.1561
    165  C         -7.4550   12.3850    8.9680 C.2   142  ILE142      0.2260
    166  O         -7.9710   12.8400    7.9350 O.2   142  ILE142     -0.2867
    167  CB        -5.2280   11.1820    8.9620 C.3   142  ILE142      0.0252
    168  CG1       -3.7460   11.3880    8.6760 C.3   142  ILE142      0.0019
    169  CG2       -5.8710   10.4580    7.7440 C.3   142  ILE142      0.0019
    170  CD1       -3.5020   12.1090    7.3620 C.3   142  ILE142      0.0001
    171  N         -9.6290   14.1050    6.0370 N.3   146  TYR146     -0.1241
    172  CA       -10.4840   13.3700    5.1030 C.3   146  TYR146      0.1605
    173  C        -11.9220   13.8580    5.0810 C.2   146  TYR146      0.2264
    174  O        -12.5160   13.9480    4.0000 O.2   146  TYR146     -0.2867
    175  CB       -10.5590   11.9110    5.4780 C.3   146  TYR146      0.0534
    176  CG        -9.5800   11.0200    4.7850 C.ar  146  TYR146     -0.0201
    177  CD1       -8.2110   11.2000    4.9410 C.ar  146  TYR146     -0.0009
    178  CD2      -10.0260    9.9570    4.0020 C.ar  146  TYR146     -0.0009
    179  CE1       -7.3130   10.3470    4.3180 C.ar  146  TYR146      0.0417
    180  CE2       -9.1480    9.1110    3.3800 C.ar  146  TYR146      0.0417
    181  CZ        -7.7830    9.3120    3.5430 C.ar  146  TYR146      0.1957
    182  OH        -6.9120    8.4420    2.9280 O.3   146  TYR146     -0.2866
@<TRIPOS>BOND
     1   118   117    1
     2   118   119    1
     3   117   116    1
     4   116   115    1
     5   115   112    1
     6    31    30    2
     7    30    29    1
     8    39    40    1
     9   112   111    1
    10   112   113    1
    11    41    40    1
    12    41    42    2
    13   114   113    2
    14    40    43    1
    15    29    28    1
    16    29    32    1
    17    98    97    2
    18    32    33    1
    19    43    44    1
    20    45    44   ar
    21    45    47   ar
    22    44    46   ar
    23    47    49   ar
    24    96    99    1
    25    96    97    1
    26    96    95    1
    27    99   100    1
    28    97   101   am
    29    46    48   ar
    30    49    48   ar
    31    33    35   ar
    32    33    34   ar
    33    35    37   ar
    34    56    58   ar
    35    56    55   ar
    36    50    51    1
    37   104   103    2
    38    58    59   ar
    39    54    55    1
    40    54    51    1
    41    65    64    1
    42   101   102    1
    43   103   102    1
    44    55    57   ar
    45    51    52    1
    46   102   105    1
    47   127   125    1
    48    34    36   ar
    49    37    38   ar
    50   120   121    1
    51    59    57   ar
    52    66    64    1
    53   125   124    1
    54    64    61    1
    55    36    38   ar
    56   121   124    1
    57   121   122    1
    58   105   106    1
    59    52    53    2
    60    93    92    2
    61   107   106   ar
    62   107   109   ar
    63   106   108   ar
    64   109   110   ar
    65   124   126    1
    66   108   110   ar
    67    27    26   ar
    68    27    25   ar
    69    26    24   ar
    70    92    91    1
    71    61    60    1
    72    61    62    1
    73    85    84    2
    74    25    23   ar
    75    24    22   ar
    76    82    83    1
    77   122   123    2
    78   182   181    1
    79    84    83    1
    80    84    90   am
    81    83    86    1
    82     7     6    1
    83    23    22   ar
    84   180   181   ar
    85   180   178   ar
    86    62    67   am
    87    62    63    2
    88    22    21    1
    89   181   179   ar
    90    91    90    1
    91    91    94    1
    92    67    68    1
    93    73    71    1
    94   174   173    2
    95   178   176   ar
    96    21    18    1
    97   179   177   ar
    98    86    87    1
    99     6     5    1
   100     6     8    1
   101   176   177   ar
   102   176   175    1
   103     5     2    1
   104    87    88    1
   105    87    89    1
   106    68    71    1
   107    68    69    1
   108   173   172    1
   109   172   175    1
   110   172   171    1
   111    71    72    1
   112    18    19    1
   113    18    17    1
   114    20    19    2
   115     4     3    2
   116     3     2    1
   117    16    14    1
   118     2     1    1
   119    69    70    2
   120   128   129    1
   121    17    11   am
   122   135   133    1
   123    14    13    1
   124    14    15    1
   125   151   149    1
   126   170   168    1
   127    11    12    2
   128    11    10    1
   129   129   132    1
   130   129   130    1
   131    13    10    1
   132   142   141    1
   133   169   167    1
   134   166   165    2
   135   149   148    1
   136   133   132    1
   137    74    75    1
   138   132   134    1
   139    10     9    1
   140   130   131    2
   141   168   167    1
   142   136   137    1
   143   167   164    1
   144   165   164    1
   145   141   143    1
   146   141   140    1
   147   164   163    1
   148   162   160   ar
   149   162   161   ar
   150   148   150    1
   151   148   145    1
   152    75    78    1
   153    75    76    1
   154   160   158   ar
   155   137   140    1
   156   137   138    1
   157    78    79    1
   158   145   144    1
   159   145   146    1
   160   161   159   ar
   161    76    77    2
   162   158   157   ar
   163   138   139    2
   164    79    80    1
   165    79    81    1
   166   159   157   ar
   167   146   147    2
   168   157   156    1
   169   155   154    2
   170   154   153    1
   171   156   153    1
   172   153   152    1
