@<TRIPOS>MOLECULE
tmp/2ef6A00.pdb
 79 76 0 0 0
SMALL
GASTEIGER

@<TRIPOS>ATOM
      1  N         12.0710   11.6880   31.3870 N.3    12  TYR12      -0.1241
      2  CA        12.4540   11.0420   32.5810 C.3    12  TYR12       0.1605
      3  C         13.7390   11.6510   33.1090 C.2    12  TYR12       0.2264
      4  O         14.7560   11.6570   32.4150 O.2    12  TYR12      -0.2867
      5  CB        12.5890    9.5380   32.3420 C.3    12  TYR12       0.0534
      6  CG        12.8780    8.8230   33.6390 C.ar   12  TYR12      -0.0201
      7  CD1       11.8230    8.5170   34.5360 C.ar   12  TYR12      -0.0009
      8  CD2       14.2210    8.5460   34.0350 C.ar   12  TYR12      -0.0009
      9  CE1       12.0890    7.9040   35.7590 C.ar   12  TYR12       0.0417
     10  CE2       14.4930    7.9280   35.2800 C.ar   12  TYR12       0.0417
     11  CZ        13.4180    7.6020   36.1060 C.ar   12  TYR12       0.1957
     12  OH        13.6420    7.0250   37.3280 O.3    12  TYR12      -0.2866
     13  N         17.0620   11.7700   34.6590 N.3    14  ASN14      -0.1240
     14  CA        18.2090   10.9790   35.0140 C.3    14  ASN14       0.1653
     15  C         19.2310   11.8880   35.6980 C.2    14  ASN14       0.2266
     16  O         20.2150   12.2870   35.0970 O.2    14  ASN14      -0.2867
     17  CB        18.8180   10.3040   33.7700 C.3    14  ASN14       0.1155
     18  CG        17.7880    9.4260   33.0160 C.2    14  ASN14       0.2627
     19  OD1       17.0430    9.9200   32.1480 O.2    14  ASN14      -0.2716
     20  ND2       17.7240    8.1280   33.3830 N.am   14  ASN14      -0.0877
     21  N         13.3480    2.7470   28.9270 N.3    98  GLY98      -0.1210
     22  CA        14.2380    1.8270   29.6410 C.3    98  GLY98       0.1956
     23  C         13.4020    1.0960   30.6590 C.2    98  GLY98       0.2612
     24  O         12.4970    0.3820   30.2990 O.2    98  GLY98      -0.2717
     25  N         13.6580    1.2890   31.9400 N.am   99  LEU99      -0.1965
     26  CA        12.7930    0.6350   32.9760 C.3    99  LEU99       0.1728
     27  C         11.3380    1.1840   32.8700 C.2    99  LEU99       0.2616
     28  O         10.3480    0.4420   32.9850 O.2    99  LEU99      -0.2715
     29  CB        13.3550    0.8760   34.3850 C.3    99  LEU99       0.0311
     30  CG        12.3510    0.4840   35.4730 C.3    99  LEU99       0.0022
     31  CD1       12.2740   -1.0400   35.4730 C.3    99  LEU99       0.0001
     32  CD2       12.8220    1.0310   36.8460 C.3    99  LEU99       0.0001
     33  N         11.2310    2.4940   32.6570 N.am  100  TYR100     -0.1974
     34  CA         9.9410    3.1180   32.4470 C.3   100  TYR100      0.1639
     35  C          9.7290    3.3880   30.9890 C.2   100  TYR100      0.2290
     36  O         10.6850    3.3460   30.1740 O.2   100  TYR100     -0.2864
     37  CB         9.7800    4.3810   33.2900 C.3   100  TYR100      0.0560
     38  CG         9.8890    4.0220   34.7480 C.ar  100  TYR100     -0.0198
     39  CD1        8.9410    3.1770   35.3360 C.ar  100  TYR100     -0.0009
     40  CD2       10.9410    4.4520   35.5130 C.ar  100  TYR100     -0.0009
     41  CE1        9.0500    2.7490   36.6570 C.ar  100  TYR100      0.0417
     42  CE2       11.0460    4.0700   36.8570 C.ar  100  TYR100      0.0417
     43  CZ        10.0890    3.2060   37.4090 C.ar  100  TYR100      0.1957
     44  OH        10.1630    2.8210   38.7200 O.3   100  TYR100     -0.2866
     45  N          8.9270    7.4980   30.3160 N.3   204  ALA204     -0.1231
     46  CA        10.3150    7.5480   30.0050 C.3   204  ALA204      0.1694
     47  C         10.3890    6.9860   28.5960 C.2   204  ALA204      0.2592
     48  O          9.4700    6.2520   28.1750 O.2   204  ALA204     -0.2718
     49  CB        11.0360    6.6790   30.9120 C.3   204  ALA204      0.0304
     50  N         11.4450    7.2770   27.8520 N.am  205  ASP205     -0.1974
     51  CA        12.5120    8.1640   28.2150 C.3   205  ASP205      0.1709
     52  C         12.5590    9.4630   27.4530 C.2   205  ASP205      0.2293
     53  O         13.1950   10.3980   27.9210 O.2   205  ASP205     -0.2864
     54  CB        13.8480    7.4890   28.0550 C.3   205  ASP205      0.1436
     55  CG        14.2280    6.7460   29.2660 C.2   205  ASP205      0.3671
     56  OD1       14.8220    7.3630   30.1570 O.co2 205  ASP205     -0.2456
     57  OD2       13.8170    5.5660   29.3570 O.co2 205  ASP205     -0.2456
     58  N         19.0900    2.2870   24.5580 N.3   223  THR223     -0.1203
     59  CA        17.7790    2.4220   25.2170 C.3   223  THR223      0.1994
     60  C         17.8620    3.3120   26.4600 C.2   223  THR223      0.2618
     61  O         18.9570    3.7170   26.9070 O.2   223  THR223     -0.2717
     62  CB        17.1400    1.0340   25.6640 C.3   223  THR223      0.1784
     63  OG1       17.9490    0.5030   26.6840 O.3   223  THR223     -0.2211
     64  CG2       17.1070    0.0020   24.5440 C.3   223  THR223      0.0376
     65  N         16.7040    3.5980   27.0370 N.am  224  GLY224     -0.1942
     66  CA        16.6350    4.3840   28.2430 C.3   224  GLY224      0.2014
     67  C         17.1750    5.7950   28.0850 C.2   224  GLY224      0.2638
     68  O         16.9350    6.4700   27.0950 O.2   224  GLY224     -0.2714
     69  N         17.9330    6.2280   29.0630 N.am  225  ARG225     -0.1977
     70  CA        18.3500    7.6160   29.1770 C.3   225  ARG225      0.1597
     71  C         19.1730    8.1550   28.0440 C.2   225  ARG225      0.2287
     72  O         19.3950    9.3810   27.9910 O.2   225  ARG225     -0.2864
     73  CB        19.1940    7.7760   30.4600 C.3   225  ARG225      0.0334
     74  CG        20.3620    6.7850   30.5940 C.3   225  ARG225      0.0492
     75  CD        20.8440    6.8530   32.0630 C.3   225  ARG225      0.2205
     76  NE        22.2220    6.4360   32.1660 N.pl3 225  ARG225     -0.0865
     77  CZ        22.9230    6.4290   33.2910 C.cat 225  ARG225      0.5346
     78  NH1       22.3720    6.8290   34.4210 N.pl3 225  ARG225      0.1354
     79  NH2       24.1580    6.0010   33.2700 N.pl3 225  ARG225      0.1354
@<TRIPOS>BOND
     1    64    62    1
     2    58    59    1
     3    59    62    1
     4    59    60    1
     5    62    63    1
     6    60    61    2
     7    60    65   am
     8    65    66    1
     9    68    67    2
    10    52    53    2
    11    52    51    1
    12    50    51    1
    13    50    47   am
    14    72    71    2
    15    71    70    1
    16    54    51    1
    17    54    55    1
    18    67    66    1
    19    67    69   am
    20    48    47    2
    21    47    46    1
    22    21    22    1
    23    69    70    1
    24    70    73    1
    25    55    57   ar
    26    55    56   ar
    27    22    23    1
    28    46    45    1
    29    46    49    1
    30    36    35    2
    31    24    23    2
    32    73    74    1
    33    74    75    1
    34    23    25   am
    35    35    34    1
    36     1     2    1
    37    25    26    1
    38    75    76    1
    39    19    18    2
    40    76    77    2
    41     5     2    1
    42     5     6    1
    43     4     3    2
    44    34    33    1
    45    34    37    1
    46     2     3    1
    47    33    27   am
    48    27    26    1
    49    27    28    2
    50    26    29    1
    51    18    20   am
    52    18    17    1
    53    79    77    1
    54    37    38    1
    55    77    78    1
    56     6     8   ar
    57     6     7   ar
    58    17    14    1
    59     8    10   ar
    60    29    30    1
    61     7     9   ar
    62    13    14    1
    63    38    39   ar
    64    38    40   ar
    65    14    15    1
    66    16    15    2
    67    10    11   ar
    68    39    41   ar
    69    30    31    1
    70    30    32    1
    71    40    42   ar
    72     9    11   ar
    73    11    12    1
    74    41    43   ar
    75    42    43   ar
    76    43    44    1
