@<TRIPOS>MOLECULE
tmp/2efeB00.pdb
 128 123 0 0 0
SMALL
GASTEIGER

@<TRIPOS>ATOM
      1  N        -13.4710   -8.4390    5.3760 N.3    11  ASP11      -0.1225
      2  CA       -12.7110   -9.6430    5.0750 C.3    11  ASP11       0.1805
      3  C        -12.8860  -10.1070    3.6300 C.2    11  ASP11       0.2598
      4  O        -13.7230   -9.5640    2.8920 O.2    11  ASP11      -0.2718
      5  CB       -12.7730  -10.7360    6.1810 C.3    11  ASP11       0.1424
      6  CG       -14.1780  -11.2050    6.4960 C.2    11  ASP11       0.3668
      7  OD1      -15.1220  -10.8200    5.7650 O.co2  11  ASP11      -0.2456
      8  OD2      -14.3340  -11.9890    7.4570 O.co2  11  ASP11      -0.2456
      9  N        -12.0200  -11.0260    3.1980 N.am   12  VAL12      -0.1966
     10  CA       -12.0140  -11.4620    1.8000 C.3    12  VAL12       0.1727
     11  C        -13.3590  -12.0850    1.4270 C.2    12  VAL12       0.2617
     12  O        -13.9500  -12.8070    2.2220 O.2    12  VAL12      -0.2715
     13  CB       -10.8440  -12.4410    1.4790 C.3    12  VAL12       0.0290
     14  CG1       -9.5740  -11.8970    2.0050 C.3    12  VAL12       0.0023
     15  CG2      -11.0880  -13.7950    2.0910 C.3    12  VAL12       0.0023
     16  N        -13.8170  -11.7980    0.2150 N.am   13  GLY13      -0.1940
     17  CA       -15.1110  -12.2650   -0.2600 C.3    13  GLY13       0.2014
     18  C        -16.3070  -11.3710    0.0500 C.2    13  GLY13       0.2639
     19  O        -17.3580  -11.5390   -0.5560 O.2    13  GLY13      -0.2714
     20  N        -16.1520  -10.4130    0.9690 N.am   14  ALA14      -0.1963
     21  CA       -17.2450   -9.4990    1.3210 C.3    14  ALA14       0.1728
     22  C        -17.7720   -8.7140    0.1050 C.2    14  ALA14       0.2617
     23  O        -18.9970   -8.5800   -0.0780 O.2    14  ALA14      -0.2715
     24  CB       -16.8260   -8.5550    2.4420 C.3    14  ALA14       0.0334
     25  N        -16.8530   -8.2010   -0.7160 N.am   15  GLY15      -0.1940
     26  CA       -17.2040   -7.4790   -1.9390 C.3    15  GLY15       0.2014
     27  C        -16.6580   -6.0680   -2.0050 C.2    15  GLY15       0.2639
     28  O        -17.2070   -5.2210   -2.6900 O.2    15  GLY15      -0.2714
     29  N        -15.5620   -5.8120   -1.3080 N.am   16  LYS16      -0.1963
     30  CA       -14.9070   -4.5150   -1.3720 C.3    16  LYS16       0.1728
     31  C        -14.6000   -4.0760   -2.8040 C.2    16  LYS16       0.2617
     32  O        -14.8840   -2.9140   -3.1810 O.2    16  LYS16      -0.2715
     33  CB       -13.6110   -4.5230   -0.5680 C.3    16  LYS16       0.0311
     34  CG       -13.7370   -4.9390    0.8750 C.3    16  LYS16       0.0038
     35  CD       -12.4060   -4.7280    1.6190 C.3    16  LYS16       0.0206
     36  CE       -11.3220   -5.7180    1.1990 C.3    16  LYS16       0.1093
     37  NZ       -11.1310   -6.8850    2.1020 N.3    16  LYS16      -0.1314
     38  N        -14.0140   -4.9950   -3.5820 N.am   17  SER17      -0.1936
     39  CA       -13.5740   -4.6990   -4.9560 C.3    17  SER17       0.2055
     40  C        -14.7560   -4.5050   -5.8830 C.2    17  SER17       0.2643
     41  O        -14.8030   -3.5160   -6.6150 O.2    17  SER17      -0.2714
     42  CB       -12.6320   -5.7910   -5.5210 C.3    17  SER17       0.2130
     43  OG       -11.3630   -5.7580   -4.8970 O.3    17  SER17      -0.2179
     44  N        -15.6910   -5.4560   -5.8490 N.am   18  SER18      -0.1949
     45  CA       -16.9440   -5.3860   -6.6250 C.3    18  SER18       0.1924
     46  C        -17.7110   -4.0760   -6.4090 C.2    18  SER18       0.2314
     47  O        -18.2550   -3.4950   -7.3550 O.2    18  SER18      -0.2863
     48  CB       -17.8510   -6.5750   -6.3140 C.3    18  SER18       0.2116
     49  OG       -17.1250   -7.7960   -6.2790 O.3    18  SER18      -0.2180
     50  N        -20.0170   -5.0390  -13.1750 N.3    28  PHE28      -0.1227
     51  CA       -19.9170   -6.2050  -12.2940 C.3    28  PHE28       0.1736
     52  C        -19.4800   -7.3870  -13.1570 C.2    28  PHE28       0.2595
     53  O        -19.9970   -7.5620  -14.2540 O.2    28  PHE28      -0.2718
     54  CB       -21.2480   -6.4880  -11.5810 C.3    28  PHE28       0.0547
     55  CG       -21.2230   -7.7130  -10.7110 C.ar   28  PHE28      -0.0202
     56  CD1      -21.8170   -8.8950  -11.1390 C.ar   28  PHE28      -0.0042
     57  CD2      -20.5990   -7.6880   -9.4690 C.ar   28  PHE28      -0.0042
     58  CE1      -21.7930  -10.0430  -10.3450 C.ar   28  PHE28      -0.0003
     59  CE2      -20.5710   -8.8260   -8.6650 C.ar   28  PHE28      -0.0003
     60  CZ       -21.1690  -10.0090   -9.1030 C.ar   28  PHE28      -0.0000
     61  N        -18.5340   -8.1860  -12.6580 N.am   29  VAL29      -0.1980
     62  CA       -17.8130   -9.1720  -13.4900 C.3    29  VAL29       0.1595
     63  C        -18.7230  -10.0230  -14.3870 C.2    29  VAL29       0.2287
     64  O        -18.3660  -10.3370  -15.5370 O.2    29  VAL29      -0.2864
     65  CB       -16.8180  -10.0640  -12.6580 C.3    29  VAL29       0.0276
     66  CG1      -17.5100  -11.2890  -12.0450 C.3    29  VAL29       0.0022
     67  CG2      -15.6290  -10.4830  -13.5230 C.3    29  VAL29       0.0022
     68  N         -8.3010    0.2320   -1.0250 N.3    58  ASP58      -0.1239
     69  CA        -8.5580   -1.1410   -0.5740 C.3    58  ASP58       0.1674
     70  C         -7.4620   -1.6380    0.4200 C.2    58  ASP58       0.2266
     71  O         -6.3090   -1.1850    0.3770 O.2    58  ASP58      -0.2867
     72  CB        -8.6570   -2.0670   -1.7800 C.3    58  ASP58       0.1410
     73  CG        -9.4510   -3.3240   -1.4970 C.2    58  ASP58       0.3668
     74  OD1      -10.0160   -3.4340   -0.4080 O.co2  58  ASP58      -0.2456
     75  OD2       -9.5280   -4.2150   -2.3630 O.co2  58  ASP58      -0.2456
     76  N        -23.2710   -6.0820    2.0490 N.3   116  ASN116     -0.1225
     77  CA       -23.1830   -6.4470    0.6450 C.3   116  ASN116      0.1785
     78  C        -23.8400   -7.7670    0.2760 C.2   116  ASN116      0.2597
     79  O        -24.1370   -8.5830    1.1480 O.2   116  ASN116     -0.2718
     80  CB       -21.7300   -6.4460    0.1660 C.3   116  ASN116      0.1169
     81  CG       -21.6340   -6.3670   -1.3420 C.2   116  ASN116      0.2627
     82  OD1      -22.3240   -5.5590   -1.9750 O.2   116  ASN116     -0.2716
     83  ND2      -20.8030   -7.2180   -1.9300 N.am  116  ASN116     -0.0877
     84  N        -24.0590   -7.9620   -1.0330 N.am  117  LYS117     -0.1980
     85  CA       -24.7090   -9.1540   -1.5820 C.3   117  LYS117      0.1596
     86  C        -26.1820   -9.2730   -1.1520 C.2   117  LYS117      0.2287
     87  O        -26.7260  -10.3780   -1.0540 O.2   117  LYS117     -0.2864
     88  CB       -23.9220  -10.4250   -1.2470 C.3   117  LYS117      0.0298
     89  CG       -22.4440  -10.3210   -1.5560 C.3   117  LYS117      0.0038
     90  CD       -21.7690  -11.6530   -1.5780 C.3   117  LYS117      0.0206
     91  CE       -20.2740  -11.4490   -1.4150 C.3   117  LYS117      0.1093
     92  NZ       -19.5370  -12.7300   -1.5120 N.3   117  LYS117     -0.1314
     93  N        -28.7700   -8.9060   -2.6850 N.3   119  ASP119     -0.1225
     94  CA       -29.4640   -9.6750   -3.7180 C.3   119  ASP119      0.1805
     95  C        -29.5480  -11.1880   -3.4640 C.2   119  ASP119      0.2597
     96  O        -30.3320  -11.8840   -4.1180 O.2   119  ASP119     -0.2718
     97  CB       -28.8290   -9.4040   -5.1010 C.3   119  ASP119      0.1424
     98  CG       -27.3300   -9.7330   -5.1500 C.2   119  ASP119      0.3668
     99  OD1      -26.5170   -8.8870   -4.7030 O.co2 119  ASP119     -0.2456
    100  OD2      -26.9620  -10.8250   -5.6480 O.co2 119  ASP119     -0.2456
    101  N        -28.7520  -11.7080   -2.5320 N.am  120  LEU120     -0.1979
    102  CA       -28.7460  -13.1550   -2.2600 C.3   120  LEU120      0.1596
    103  C        -29.7870  -13.5240   -1.1990 C.2   120  LEU120      0.2287
    104  O        -29.6780  -13.1160   -0.0360 O.2   120  LEU120     -0.2864
    105  CB       -27.3440  -13.6380   -1.8620 C.3   120  LEU120      0.0297
    106  CG       -26.2780  -13.6470   -2.9570 C.3   120  LEU120      0.0022
    107  CD1      -24.8950  -13.8110   -2.3640 C.3   120  LEU120      0.0001
    108  CD2      -26.5490  -14.7460   -3.9900 C.3   120  LEU120      0.0001
    109  N        -25.5530   -3.8630   -3.1050 N.3   146  SER146     -0.1202
    110  CA       -25.3060   -4.9410   -4.0370 C.3   146  SER146      0.2020
    111  C        -24.4800   -4.4240   -5.2250 C.2   146  SER146      0.2619
    112  O        -24.8620   -3.4500   -5.9010 O.2   146  SER146     -0.2717
    113  CB       -26.6080   -5.5670   -4.5020 C.3   146  SER146      0.2103
    114  OG       -26.3370   -6.7260   -5.2510 O.3   146  SER146     -0.2182
    115  N        -23.3210   -5.0600   -5.4270 N.am  147  ALA147     -0.1965
    116  CA       -22.4670   -4.7960   -6.5670 C.3   147  ALA147      0.1728
    117  C        -23.1040   -5.3490   -7.8290 C.2   147  ALA147      0.2616
    118  O        -23.0250   -4.7300   -8.8790 O.2   147  ALA147     -0.2715
    119  CB       -21.1060   -5.4170   -6.3580 C.3   147  ALA147      0.0334
    120  N        -23.7390   -6.5130   -7.7300 N.am  148  LYS148     -0.1977
    121  CA       -24.2820   -7.1800   -8.9060 C.3   148  LYS148      0.1596
    122  C        -25.4450   -6.4020   -9.5370 C.2   148  LYS148      0.2287
    123  O        -25.4310   -6.1490  -10.7510 O.2   148  LYS148     -0.2864
    124  CB       -24.6870   -8.6220   -8.5730 C.3   148  LYS148      0.0298
    125  CG       -25.7730   -9.1790   -9.4690 C.3   148  LYS148      0.0038
    126  CD       -25.8880  -10.6780   -9.3680 C.3   148  LYS148      0.0206
    127  CE       -26.8450  -11.1860  -10.4590 C.3   148  LYS148      0.1093
    128  NZ       -26.8340  -12.6860  -10.5750 N.3   148  LYS148     -0.1314
@<TRIPOS>BOND
     1    64    63    2
     2    63    62    1
     3    53    52    2
     4    67    65    1
     5    62    65    1
     6    62    61    1
     7    50    51    1
     8    52    61   am
     9    52    51    1
    10    65    66    1
    11    51    54    1
    12    54    55    1
    13    56    55   ar
    14    56    58   ar
    15   123   122    2
    16    55    57   ar
    17   128   127    1
    18   127   126    1
    19    58    60   ar
    20   122   121    1
    21   125   126    1
    22   125   124    1
    23    57    59   ar
    24    60    59   ar
    25   121   124    1
    26   121   120    1
    27   118   117    2
    28   117   120   am
    29   117   116    1
    30    47    46    2
    31    45    46    1
    32    45    48    1
    33    45    44    1
    34    41    40    2
    35   116   119    1
    36   116   115    1
    37    48    49    1
    38   112   111    2
    39    40    44   am
    40    40    39    1
    41   100    98   ar
    42    42    39    1
    43    42    43    1
    44   115   111   am
    45   114   113    1
    46   111   110    1
    47    98    97    1
    48    98    99   ar
    49    97    94    1
    50    39    38    1
    51   113   110    1
    52    96    95    2
    53   110   109    1
    54   108   106    1
    55    94    95    1
    56    94    93    1
    57    38    31   am
    58    95   101   am
    59    32    31    2
    60   106   107    1
    61   106   105    1
    62    31    30    1
    63    28    27    2
    64   101   102    1
    65    75    73   ar
    66   102   105    1
    67   102   103    1
    68    27    26    1
    69    27    29   am
    70    82    81    2
    71    26    25    1
    72    83    81   am
    73    72    73    1
    74    72    69    1
    75    85    88    1
    76    85    86    1
    77    85    84    1
    78    90    89    1
    79    90    91    1
    80    89    88    1
    81    92    91    1
    82    73    74   ar
    83    30    29    1
    84    30    33    1
    85    81    80    1
    86   103   104    2
    87    86    87    2
    88    84    78   am
    89    68    69    1
    90    25    22   am
    91    69    70    1
    92    33    34    1
    93    19    18    2
    94    17    18    1
    95    17    16    1
    96    23    22    2
    97    18    20   am
    98    22    21    1
    99    80    77    1
   100    16    11   am
   101    78    77    1
   102    78    79    2
   103    71    70    2
   104    77    76    1
   105    34    35    1
   106    20    21    1
   107    36    35    1
   108    36    37    1
   109    21    24    1
   110    11    10    1
   111    11    12    2
   112    13    10    1
   113    13    14    1
   114    13    15    1
   115    10     9    1
   116     4     3    2
   117     9     3   am
   118     3     2    1
   119     2     1    1
   120     2     5    1
   121     7     6   ar
   122     5     6    1
   123     6     8   ar
