@<TRIPOS>MOLECULE
tmp/2efgA00.pdb
 125 122 0 0 0
SMALL
GASTEIGER

@<TRIPOS>ATOM
      1  N         -5.1100   14.3810   17.9430 N.3    13  ALA13      -0.1231
      2  CA        -4.8160   15.3690   16.9210 C.3    13  ALA13       0.1694
      3  C         -3.3280   15.6890   16.7940 C.2    13  ALA13       0.2592
      4  O         -2.5890   15.6510   17.7770 O.2    13  ALA13      -0.2718
      5  CB        -5.5940   16.6420   17.2190 C.3    13  ALA13       0.0304
      6  N         -2.8970   16.0060   15.5720 N.am   14  HIS14      -0.1962
      7  CA        -1.5050   16.3660   15.3100 C.3    14  HIS14       0.1787
      8  C         -1.2170   17.6060   16.1580 C.2    14  HIS14       0.2620
      9  O         -2.1180   18.4080   16.4150 O.2    14  HIS14      -0.2715
     10  CB        -1.3300   16.6820   13.8210 C.3    14  HIS14       0.0785
     11  CG         0.0840   16.9540   13.4100 C.ar   14  HIS14       0.0821
     12  ND1        0.7280   18.1430   13.6820 N.ar   14  HIS14      -0.2267
     13  CD2        0.9820   16.1880   12.7390 C.ar   14  HIS14       0.1154
     14  CE1        1.9560   18.0990   13.1980 C.ar   14  HIS14       0.1986
     15  NE2        2.1360   16.9240   12.6220 N.ar   14  HIS14      -0.2212
     16  N          0.0270   17.7640   16.5970 N.am   15  ILE15      -0.1963
     17  CA         0.4000   18.9090   17.4240 C.3    15  ILE15       0.1727
     18  C         -0.0260   20.2340   16.7980 C.2    15  ILE15       0.2616
     19  O          0.3280   20.5310   15.6620 O.2    15  ILE15      -0.2715
     20  CB         1.9340   18.9470   17.6720 C.3    15  ILE15       0.0290
     21  CG1        2.4120   17.6010   18.2380 C.3    15  ILE15       0.0022
     22  CG2        2.2850   20.0810   18.6270 C.3    15  ILE15       0.0023
     23  CD1        1.5890   17.0650   19.4150 C.3    15  ILE15       0.0001
     24  N         -0.7890   21.0180   17.5540 N.am   16  ASP16      -0.1957
     25  CA        -1.2850   22.3250   17.1260 C.3    16  ASP16       0.1840
     26  C         -2.6180   22.3100   16.3890 C.2    16  ASP16       0.2622
     27  O         -3.1500   23.3680   16.0490 O.2    16  ASP16      -0.2715
     28  CB        -0.2500   23.0460   16.2640 C.3    16  ASP16       0.1450
     29  CG         0.8730   23.6270   17.0780 C.2    16  ASP16       0.3671
     30  OD1        1.5550   22.8530   17.7840 O.co2  16  ASP16      -0.2456
     31  OD2        1.0710   24.8600   17.0150 O.co2  16  ASP16      -0.2456
     32  N         -3.1610   21.1270   16.1310 N.am   17  ALA17      -0.1963
     33  CA        -4.4370   21.0550   15.4400 C.3    17  ALA17       0.1728
     34  C         -5.5070   21.6860   16.3340 C.2    17  ALA17       0.2617
     35  O         -6.5920   22.0500   15.8720 O.2    17  ALA17      -0.2715
     36  CB        -4.7870   19.6100   15.1260 C.3    17  ALA17       0.0334
     37  N         -5.1990   21.8060   17.6220 N.am   18  GLY18      -0.1940
     38  CA        -6.1420   22.4150   18.5460 C.3    18  GLY18       0.2014
     39  C         -6.7920   21.5130   19.5810 C.2    18  GLY18       0.2639
     40  O         -7.9460   21.7430   19.9610 O.2    18  GLY18      -0.2714
     41  N         -6.0610   20.4970   20.0410 N.am   19  LYS19      -0.1963
     42  CA        -6.5790   19.5760   21.0510 C.3    19  LYS19       0.1728
     43  C         -6.8840   20.3110   22.3550 C.2    19  LYS19       0.2617
     44  O         -7.9530   20.1430   22.9440 O.2    19  LYS19      -0.2715
     45  CB        -5.5690   18.4710   21.3410 C.3    19  LYS19       0.0311
     46  CG        -6.0110   17.5390   22.4540 C.3    19  LYS19       0.0038
     47  CD        -4.8970   16.6110   22.9060 C.3    19  LYS19       0.0206
     48  CE        -5.3470   15.8040   24.1200 C.3    19  LYS19       0.1093
     49  NZ        -4.2850   14.9000   24.6490 N.3    19  LYS19      -0.1314
     50  N         -5.9360   21.1250   22.8050 N.am   20  THR20      -0.1937
     51  CA        -6.1190   21.8730   24.0370 C.3    20  THR20       0.2028
     52  C         -7.3160   22.8100   23.9450 C.2    20  THR20       0.2642
     53  O         -8.2670   22.6740   24.7160 O.2    20  THR20      -0.2714
     54  CB        -4.8630   22.6980   24.3920 C.3    20  THR20       0.1808
     55  OG1       -3.7450   21.8170   24.5550 O.3    20  THR20      -0.2208
     56  CG2       -5.0780   23.4640   25.6910 C.3    20  THR20       0.0379
     57  N         -7.2710   23.7490   23.0000 N.am   21  THR21      -0.1950
     58  CA        -8.3610   24.7080   22.8200 C.3    21  THR21       0.1897
     59  C         -9.7210   24.0210   22.6430 C.2    21  THR21       0.2313
     60  O        -10.7420   24.5030   23.1420 O.2    21  THR21      -0.2863
     61  CB        -8.1200   25.6370   21.5960 C.3    21  THR21       0.1794
     62  OG1       -6.8510   26.3000   21.7180 O.3    21  THR21      -0.2208
     63  CG2       -9.2200   26.6940   21.5160 C.3    21  THR21       0.0378
     64  N        -11.0970   21.8560   12.6140 N.3   104  ASN104     -0.1225
     65  CA       -10.8540   23.0600   13.4000 C.3   104  ASN104      0.1785
     66  C        -10.1460   24.1650   12.6250 C.2   104  ASN104      0.2597
     67  O         -9.5470   23.9160   11.5820 O.2   104  ASN104     -0.2718
     68  CB       -10.0350   22.7000   14.6440 C.3   104  ASN104      0.1169
     69  CG       -10.0120   23.8160   15.6660 C.2   104  ASN104      0.2627
     70  OD1      -11.0590   24.3860   16.0070 O.2   104  ASN104     -0.2716
     71  ND2       -8.8230   24.1320   16.1740 N.am  104  ASN104     -0.0877
     72  N        -10.2350   25.3860   13.1420 N.am  105  LYS105     -0.1980
     73  CA        -9.5900   26.5550   12.5460 C.3   105  LYS105      0.1596
     74  C        -10.2200   27.0660   11.2490 C.2   105  LYS105      0.2287
     75  O         -9.5470   27.6790   10.4220 O.2   105  LYS105     -0.2864
     76  CB        -8.1010   26.2700   12.3120 C.3   105  LYS105      0.0298
     77  CG        -7.3120   25.9480   13.5650 C.3   105  LYS105      0.0038
     78  CD        -5.8110   25.9130   13.2960 C.3   105  LYS105      0.0206
     79  CE        -5.0190   25.5010   14.5350 C.3   105  LYS105      0.1093
     80  NZ        -3.5450   25.6080   14.3240 N.3   105  LYS105     -0.1314
     81  N        -11.4690   29.4670   10.6220 N.3   107  ASP107     -0.1225
     82  CA       -11.4020   30.9290   10.5880 C.3   107  ASP107      0.1805
     83  C        -10.0140   31.3560   10.1320 C.2   107  ASP107      0.2597
     84  O         -9.7940   32.5160    9.7830 O.2   107  ASP107     -0.2718
     85  CB       -11.6550   31.5030   11.9860 C.3   107  ASP107      0.1424
     86  CG       -10.5650   31.1060   12.9740 C.2   107  ASP107      0.3668
     87  OD1      -10.4700   29.9000   13.3040 O.co2 107  ASP107     -0.2456
     88  OD2       -9.7880   31.9900   13.4040 O.co2 107  ASP107     -0.2456
     89  N         -9.0830   30.4060   10.1630 N.am  108  LYS108     -0.1979
     90  CA        -7.6990   30.6400    9.7790 C.3   108  LYS108      0.1596
     91  C         -7.5550   30.7930    8.2750 C.2   108  LYS108      0.2287
     92  O         -8.3650   30.2800    7.5010 O.2   108  LYS108     -0.2864
     93  CB        -6.8320   29.4720   10.2570 C.3   108  LYS108      0.0298
     94  CG        -5.3560   29.5850    9.9140 C.3   108  LYS108      0.0038
     95  CD        -4.5800   28.3620   10.3930 C.3   108  LYS108      0.0206
     96  CE        -3.0840   28.5180   10.1290 C.3   108  LYS108      0.1093
     97  NZ        -2.2670   27.3780   10.6480 N.3   108  LYS108     -0.1314
     98  N        -14.6650   26.6350   14.7540 N.3   229  SER229     -0.1202
     99  CA       -13.4760   27.3090   15.2400 C.3   229  SER229      0.2020
    100  C        -13.5110   27.2690   16.7620 C.2   229  SER229      0.2619
    101  O        -14.3570   27.9110   17.3870 O.2   229  SER229     -0.2717
    102  CB       -13.4410   28.7530   14.7710 C.3   229  SER229      0.2103
    103  OG       -12.2380   29.3480   15.2040 O.3   229  SER229     -0.2182
    104  N        -12.6100   26.4970   17.3560 N.am  230  ALA230     -0.1965
    105  CA       -12.5590   26.4000   18.8130 C.3   230  ALA230      0.1728
    106  C        -12.1900   27.7610   19.3710 C.2   230  ALA230      0.2616
    107  O        -12.8830   28.3150   20.2180 O.2   230  ALA230     -0.2715
    108  CB       -11.5250   25.3770   19.2360 C.3   230  ALA230      0.0334
    109  N        -11.0990   28.3060   18.8590 N.am  231  LEU231     -0.1963
    110  CA       -10.6110   29.5870   19.3070 C.3   231  LEU231      0.1728
    111  C        -11.5940   30.7250   19.1810 C.2   231  LEU231      0.2616
    112  O        -11.4240   31.7460   19.8400 O.2   231  LEU231     -0.2715
    113  CB        -9.3320   29.9490   18.5560 C.3   231  LEU231      0.0311
    114  CG        -8.5550   31.1720   19.0480 C.3   231  LEU231      0.0022
    115  CD1       -8.2620   31.0300   20.5320 C.3   231  LEU231      0.0001
    116  CD2       -7.2600   31.2970   18.2680 C.3   231  LEU231      0.0001
    117  N        -12.6210   30.5750   18.3520 N.am  232  LYS232     -0.1977
    118  CA       -13.5830   31.6670   18.1740 C.3   232  LYS232      0.1596
    119  C        -14.9920   31.2560   18.5490 C.2   232  LYS232      0.2287
    120  O        -15.9690   31.8860   18.1480 O.2   232  LYS232     -0.2864
    121  CB       -13.5640   32.1600   16.7300 C.3   232  LYS232      0.0298
    122  CG       -12.1840   32.4660   16.1900 C.3   232  LYS232      0.0038
    123  CD       -11.7850   33.9010   16.4120 C.3   232  LYS232      0.0206
    124  CE       -10.4850   34.1940   15.6770 C.3   232  LYS232      0.1093
    125  NZ       -10.0720   35.6160   15.8110 N.3   232  LYS232     -0.1314
@<TRIPOS>BOND
     1    92    91    2
     2    91    90    1
     3    90    89    1
     4    90    93    1
     5    84    83    2
     6    94    93    1
     7    94    95    1
     8    96    95    1
     9    96    97    1
    10    83    89   am
    11    83    82    1
    12    75    74    2
    13    82    81    1
    14    82    85    1
    15    74    73    1
    16    67    66    2
    17    85    86    1
    18    76    73    1
    19    76    77    1
    20    73    72    1
    21    64    65    1
    22    15    13   ar
    23    15    14   ar
    24    66    72   am
    25    66    65    1
    26    13    11   ar
    27    86    87   ar
    28    86    88   ar
    29    14    12   ar
    30    78    77    1
    31    78    79    1
    32    65    68    1
    33    11    12   ar
    34    11    10    1
    35    10     7    1
    36    80    79    1
    37    68    69    1
    38    98    99    1
    39   102   103    1
    40   102    99    1
    41    36    33    1
    42    99   100    1
    43     7     6    1
    44     7     8    1
    45    33    32    1
    46    33    34    1
    47     6     3   am
    48    19    18    2
    49    69    70    2
    50    69    71   am
    51   124   125    1
    52   124   123    1
    53    35    34    2
    54    27    26    2
    55    32    26   am
    56     8     9    2
    57     8    16   am
    58   122   123    1
    59   122   121    1
    60    28    29    1
    61    28    25    1
    62    34    37   am
    63    26    25    1
    64    16    17    1
    65   121   118    1
    66   100   104   am
    67   100   101    2
    68     3     2    1
    69     3     4    2
    70    18    17    1
    71    18    24   am
    72     2     5    1
    73     2     1    1
    74    31    29   ar
    75    29    30   ar
    76    25    24    1
    77   104   105    1
    78    17    20    1
    79    37    38    1
    80    20    21    1
    81    20    22    1
    82   120   119    2
    83   118   117    1
    84   118   119    1
    85    21    23    1
    86   116   114    1
    87   117   111   am
    88    38    39    1
    89   113   114    1
    90   113   110    1
    91   105   108    1
    92   105   106    1
    93   109   110    1
    94   109   106   am
    95   114   115    1
    96   111   110    1
    97   111   112    2
    98   106   107    2
    99    39    40    2
   100    39    41   am
   101    41    42    1
   102    42    45    1
   103    42    43    1
   104    45    46    1
   105    63    61    1
   106    61    62    1
   107    61    58    1
   108    43    50   am
   109    43    44    2
   110    46    47    1
   111    59    58    1
   112    59    60    2
   113    50    51    1
   114    58    57    1
   115    47    48    1
   116    57    52   am
   117    52    51    1
   118    52    53    2
   119    51    54    1
   120    48    49    1
   121    54    55    1
   122    54    56    1
