@<TRIPOS>MOLECULE
tmp/2efjA00.pdb
 222 218 0 0 0
SMALL
GASTEIGER

@<TRIPOS>ATOM
      1  N         13.0890   20.0980   44.3870 N.3     5  LEU5       -0.1231
      2  CA        12.2820   20.3380   45.5800 C.3     5  LEU5        0.1693
      3  C         10.8050   20.5720   45.2710 C.2     5  LEU5        0.2592
      4  O         10.4430   21.3380   44.3730 O.2     5  LEU5       -0.2718
      5  CB        12.8520   21.4900   46.4250 C.3     5  LEU5        0.0284
      6  CG        12.3520   21.7800   47.8610 C.3     5  LEU5        0.0019
      7  CD1       11.1990   22.7480   47.8690 C.3     5  LEU5        0.0001
      8  CD2       11.9780   20.5340   48.6550 C.3     5  LEU5        0.0001
      9  N          9.9700   19.8760   46.0360 N.am    6  HIS6       -0.1962
     10  CA         8.5280   20.0200   46.0060 C.3     6  HIS6        0.1787
     11  C          7.9680   19.1700   47.1330 C.2     6  HIS6        0.2620
     12  O          8.6120   18.2140   47.5760 O.2     6  HIS6       -0.2715
     13  CB         7.9430   19.5680   44.6690 C.3     6  HIS6        0.0785
     14  CG         8.2940   18.1610   44.3020 C.ar    6  HIS6        0.0821
     15  ND1        7.5780   17.0730   44.7540 N.ar    6  HIS6       -0.2267
     16  CD2        9.2880   17.6630   43.5310 C.ar    6  HIS6        0.1154
     17  CE1        8.1100   15.9660   44.2660 C.ar    6  HIS6        0.1986
     18  NE2        9.1530   16.2960   43.5270 N.ar    6  HIS6       -0.2212
     19  N          6.7740   19.5320   47.5990 N.am    7  MET7       -0.1977
     20  CA         6.0620   18.7180   48.5760 C.3     7  MET7        0.1605
     21  C          5.5360   17.4500   47.8870 C.2     7  MET7        0.2287
     22  O          5.4320   17.4010   46.6520 O.2     7  MET7       -0.2864
     23  CB         4.9230   19.5260   49.2280 C.3     7  MET7        0.0413
     24  CG         5.3530   20.8440   49.9190 C.3     7  MET7        0.0598
     25  SD         6.5480   20.6110   51.2760 S.3     7  MET7       -0.1393
     26  CE         8.1310   20.6760   50.4180 C.3     7  MET7        0.0692
     27  N          0.9850   15.7690   50.2550 N.3    12  TYR12      -0.1241
     28  CA         0.9170   17.0040   51.0290 C.3    12  TYR12       0.1605
     29  C         -0.5330   17.5010   51.0960 C.2    12  TYR12       0.2264
     30  O         -0.9780   17.9850   52.1440 O.2    12  TYR12      -0.2867
     31  CB         1.8400   18.0870   50.4530 C.3    12  TYR12       0.0534
     32  CG         1.8250   19.3810   51.2510 C.ar   12  TYR12      -0.0201
     33  CD1        2.6900   19.5630   52.3320 C.ar   12  TYR12      -0.0009
     34  CD2        0.9390   20.4140   50.9330 C.ar   12  TYR12      -0.0009
     35  CE1        2.6720   20.7320   53.0750 C.ar   12  TYR12       0.0417
     36  CE2        0.9110   21.5940   51.6720 C.ar   12  TYR12       0.0417
     37  CZ         1.7820   21.7470   52.7440 C.ar   12  TYR12       0.1957
     38  OH         1.7670   22.9070   53.4920 O.3    12  TYR12      -0.2866
     39  N         -1.0210   26.4420   60.4930 N.3    21  PHE21      -0.1227
     40  CA        -0.4250   27.7770   60.4280 C.3    21  PHE21       0.1736
     41  C         -1.3790   28.8390   59.8690 C.2    21  PHE21       0.2595
     42  O         -1.4560   29.9590   60.4080 O.2    21  PHE21      -0.2718
     43  CB         0.9070   27.7550   59.6470 C.3    21  PHE21       0.0547
     44  CG         1.8420   26.6290   60.0580 C.ar   21  PHE21      -0.0202
     45  CD1        2.4210   26.5990   61.3370 C.ar   21  PHE21      -0.0042
     46  CD2        2.1550   25.6130   59.1640 C.ar   21  PHE21      -0.0042
     47  CE1        3.2770   25.5600   61.7260 C.ar   21  PHE21      -0.0003
     48  CE2        3.0080   24.5690   59.5360 C.ar   21  PHE21      -0.0003
     49  CZ         3.5730   24.5370   60.8160 C.ar   21  PHE21      -0.0000
     50  N         -2.1350   28.4870   58.8280 N.am   22  LEU22      -0.1980
     51  CA        -2.9990   29.4800   58.1510 C.3    22  LEU22       0.1596
     52  C         -4.0160   30.1920   59.0490 C.2    22  LEU22       0.2287
     53  O         -4.1770   31.4150   58.9240 O.2    22  LEU22      -0.2864
     54  CB        -3.6520   28.9060   56.8800 C.3    22  LEU22       0.0297
     55  CG        -2.6970   28.5540   55.7420 C.3    22  LEU22       0.0022
     56  CD1       -3.4230   27.9200   54.5530 C.3    22  LEU22       0.0001
     57  CD2       -1.8960   29.7740   55.2780 C.3    22  LEU22       0.0001
     58  N          1.0210   34.6130   45.5670 N.3    52  ASP52      -0.1239
     59  CA         1.2450   33.6430   46.6640 C.3    52  ASP52       0.1674
     60  C          2.4890   32.8260   46.3150 C.2    52  ASP52       0.2266
     61  O          2.5070   32.1220   45.3240 O.2    52  ASP52      -0.2867
     62  CB         0.0380   32.7170   46.9130 C.3    52  ASP52       0.1410
     63  CG         0.2200   31.8180   48.1580 C.2    52  ASP52       0.3668
     64  OD1        0.9520   32.1860   49.1180 O.co2  52  ASP52      -0.2456
     65  OD2       -0.3710   30.7130   48.1690 O.co2  52  ASP52      -0.2456
     66  N          5.0740   30.1750   46.8520 N.3    54  GLY54      -0.1210
     67  CA         5.2180   28.8140   47.4180 C.3    54  GLY54       0.1956
     68  C          3.8440   28.2600   47.7700 C.2    54  GLY54       0.2612
     69  O          3.6070   27.7870   48.8960 O.2    54  GLY54      -0.2717
     70  N          2.9340   28.3360   46.8070 N.am   55  CYS55      -0.1956
     71  CA         1.5360   27.9730   47.0170 C.3    55  CYS55       0.1843
     72  C          1.3440   26.4760   47.2360 C.2    55  CYS55       0.2625
     73  O          0.3450   26.0690   47.8440 O.2    55  CYS55      -0.2714
     74  CB         0.6700   28.4320   45.8350 C.3    55  CYS55       0.0997
     75  SG         1.1400   27.7270   44.2360 S.3    55  CYS55      -0.0797
     76  N          2.2910   25.6810   46.7430 N.am   56  ALA56      -0.1977
     77  CA         2.1670   24.2060   46.6940 C.3    56  ALA56       0.1597
     78  C          0.9010   23.7890   45.9360 C.2    56  ALA56       0.2287
     79  O          0.5620   24.3690   44.9050 O.2    56  ALA56      -0.2864
     80  CB         2.2010   23.5900   48.1180 C.3    56  ALA56       0.0319
     81  N         -4.8550   23.9260   51.1180 N.3    60  ASN60      -0.1240
     82  CA        -4.1760   25.1450   51.5530 C.3    60  ASN60       0.1653
     83  C         -4.0170   26.2130   50.4670 C.2    60  ASN60       0.2266
     84  O         -4.1060   27.4040   50.7670 O.2    60  ASN60      -0.2867
     85  CB        -2.8250   24.8250   52.1910 C.3    60  ASN60       0.1155
     86  CG        -2.9640   24.2380   53.5950 C.2    60  ASN60       0.2627
     87  OD1       -4.0620   24.1490   54.1360 O.2    60  ASN60      -0.2716
     88  ND2       -1.8390   23.8330   54.1870 N.am   60  ASN60      -0.0877
     89  N         -5.7820   29.7070   51.0980 N.3    64  THR64      -0.1218
     90  CA        -5.0690   30.9820   51.0720 C.3    64  THR64       0.1862
     91  C         -5.7510   31.9760   50.1110 C.2    64  THR64       0.2287
     92  O         -5.9800   33.1200   50.4820 O.2    64  THR64      -0.2866
     93  CB        -3.5430   30.8020   50.8010 C.3    64  THR64       0.1770
     94  OG1       -2.9210   30.3060   51.9940 O.3    64  THR64      -0.2211
     95  CG2       -2.8580   32.1470   50.4470 C.3    64  THR64       0.0375
     96  N          2.5720   31.0290   42.7150 N.3    83  ASN83      -0.1225
     97  CA         3.9450   30.7110   42.3540 C.3    83  ASN83       0.1785
     98  C          4.4040   29.4970   43.1190 C.2    83  ASN83       0.2597
     99  O          4.1900   29.3770   44.3380 O.2    83  ASN83      -0.2718
    100  CB         4.9100   31.8710   42.6350 C.3    83  ASN83       0.1169
    101  CG         6.3710   31.4080   42.8400 C.2    83  ASN83       0.2627
    102  OD1        6.8530   31.2990   43.9790 O.2    83  ASN83      -0.2716
    103  ND2        7.0760   31.1510   41.7310 N.am   83  ASN83      -0.0877
    104  N          5.0730   28.6170   42.4010 N.am   84  ASP84      -0.1960
    105  CA         5.8220   27.5270   43.0420 C.3    84  ASP84       0.1840
    106  C          6.8720   27.0270   42.0520 C.2    84  ASP84       0.2621
    107  O          6.9530   27.5130   40.9380 O.2    84  ASP84      -0.2715
    108  CB         4.8960   26.4230   43.5210 C.3    84  ASP84       0.1450
    109  CG         5.4880   25.6380   44.7130 C.2    84  ASP84       0.3671
    110  OD1        6.4100   24.8300   44.4850 O.co2  84  ASP84      -0.2456
    111  OD2        5.0500   25.8650   45.8740 O.co2  84  ASP84      -0.2456
    112  N          7.6810   26.0600   42.4710 N.am   85  LEU85      -0.1977
    113  CA         8.7380   25.4990   41.6260 C.3    85  LEU85       0.1596
    114  C          8.1550   24.8700   40.3390 C.2    85  LEU85       0.2287
    115  O          6.9730   24.5220   40.3120 O.2    85  LEU85      -0.2864
    116  CB         9.6240   24.5530   42.4900 C.3    85  LEU85       0.0297
    117  CG        10.5110   25.3520   43.4630 C.3    85  LEU85       0.0022
    118  CD1       11.1350   24.5270   44.5900 C.3    85  LEU85       0.0001
    119  CD2       11.6110   26.1140   42.7230 C.3    85  LEU85       0.0001
    120  N          5.8910   21.6960   40.3820 N.3    88  ASN88      -0.1240
    121  CA         4.7610   21.6710   41.2930 C.3    88  ASN88       0.1653
    122  C          3.5810   21.1890   40.4880 C.2    88  ASN88       0.2266
    123  O          3.5590   21.3290   39.2630 O.2    88  ASN88      -0.2867
    124  CB         4.4860   23.0670   41.8840 C.3    88  ASN88       0.1155
    125  CG         3.2940   23.0830   42.8390 C.2    88  ASN88       0.2627
    126  OD1        3.3130   22.4400   43.8850 O.2    88  ASN88      -0.2716
    127  ND2        2.2650   23.8490   42.4890 N.am   88  ASN88      -0.0877
    128  N          8.3990   29.2280   39.1300 N.3   122  GLY122     -0.1210
    129  CA         9.7990   29.5680   39.2420 C.3   122  GLY122      0.1956
    130  C         10.2260   29.6340   40.6860 C.2   122  GLY122      0.2613
    131  O          9.4100   29.4860   41.5880 O.2   122  GLY122     -0.2717
    132  N         11.5110   29.8910   40.9010 N.am  123  SER123     -0.1938
    133  CA        12.0500   30.0880   42.2450 C.3   123  SER123      0.2055
    134  C         11.7570   31.4950   42.7510 C.2   123  SER123      0.2643
    135  O         11.9750   32.4710   42.0320 O.2   123  SER123     -0.2714
    136  CB        13.5650   29.8590   42.2190 C.3   123  SER123      0.2130
    137  OG        14.1240   30.1340   43.4780 O.3   123  SER123     -0.2179
    138  N         11.2840   31.6200   43.9910 N.am  124  PHE124     -0.1959
    139  CA        11.1280   32.9550   44.5430 C.3   124  PHE124      0.1771
    140  C         12.4420   33.6170   44.9160 C.2   124  PHE124      0.2619
    141  O         12.4480   34.7400   45.3730 O.2   124  PHE124     -0.2715
    142  CB        10.0570   33.0690   45.6520 C.3   124  PHE124      0.0574
    143  CG        10.1770   32.0790   46.7770 C.ar  124  PHE124     -0.0200
    144  CD1       11.3620   31.9320   47.5110 C.ar  124  PHE124     -0.0042
    145  CD2        9.0520   31.3710   47.1820 C.ar  124  PHE124     -0.0042
    146  CE1       11.4350   31.0310   48.5730 C.ar  124  PHE124     -0.0003
    147  CE2        9.0980   30.4780   48.2510 C.ar  124  PHE124     -0.0003
    148  CZ        10.2900   30.2980   48.9510 C.ar  124  PHE124     -0.0000
    149  N         13.5560   32.9270   44.6810 N.am  125  TYR125     -0.1974
    150  CA        14.8620   33.5470   44.7880 C.3   125  TYR125      0.1639
    151  C         15.3200   34.2060   43.4610 C.2   125  TYR125      0.2290
    152  O         16.4340   34.7150   43.3560 O.2   125  TYR125     -0.2864
    153  CB        15.8910   32.5380   45.3700 C.3   125  TYR125      0.0560
    154  CG        15.5380   32.0650   46.7890 C.ar  125  TYR125     -0.0198
    155  CD1       15.3670   32.9820   47.8120 C.ar  125  TYR125     -0.0009
    156  CD2       15.3690   30.7010   47.0950 C.ar  125  TYR125     -0.0009
    157  CE1       15.0460   32.5930   49.0860 C.ar  125  TYR125      0.0417
    158  CE2       15.0530   30.2990   48.3970 C.ar  125  TYR125      0.0417
    159  CZ        14.8930   31.2540   49.3790 C.ar  125  TYR125      0.1957
    160  OH        14.5660   30.9180   50.6680 O.3   125  TYR125     -0.2866
    161  N          2.4700   37.1770   49.4510 N.3   138  HIS138     -0.1241
    162  CA         2.2060   36.3900   50.6330 C.3   138  HIS138      0.1621
    163  C          3.0220   35.1080   50.4640 C.2   138  HIS138      0.2264
    164  O          3.1310   34.6000   49.3590 O.2   138  HIS138     -0.2867
    165  CB         0.6990   36.0490   50.7500 C.3   138  HIS138      0.0745
    166  CG         0.4020   34.9920   51.7720 C.ar  138  HIS138      0.0817
    167  ND1        0.2780   33.6520   51.4610 N.ar  138  HIS138     -0.2268
    168  CD2        0.2570   35.0790   53.1160 C.ar  138  HIS138      0.1154
    169  CE1        0.0760   32.9610   52.5680 C.ar  138  HIS138      0.1986
    170  NE2        0.0470   33.8060   53.5850 N.ar  138  HIS138     -0.2212
    171  N          3.5740   31.4200   52.9640 N.3   140  CYS140     -0.1221
    172  CA         3.4500   30.7480   54.2470 C.3   140  CYS140      0.1808
    173  C          4.1940   29.4310   54.2090 C.2   140  CYS140      0.2601
    174  O          3.8460   28.5470   53.4320 O.2   140  CYS140     -0.2717
    175  CB         1.9800   30.4940   54.6220 C.3   140  CYS140      0.0970
    176  SG         1.7530   29.6420   56.2020 S.3   140  CYS140     -0.0800
    177  N          5.2240   29.3320   55.0410 N.am  141  TYR141     -0.1962
    178  CA         5.9470   28.0930   55.2750 C.3   141  TYR141      0.1771
    179  C          6.8460   27.6050   54.1410 C.2   141  TYR141      0.2619
    180  O          6.9500   26.3870   53.8460 O.2   141  TYR141     -0.2715
    181  CB         5.0200   27.0290   55.8620 C.3   141  TYR141      0.0574
    182  CG         5.3190   26.8780   57.3160 C.ar  141  TYR141     -0.0198
    183  CD1        5.0650   27.9160   58.2230 C.ar  141  TYR141     -0.0009
    184  CD2        5.9450   25.7320   57.7760 C.ar  141  TYR141     -0.0009
    185  CE1        5.3960   27.7730   59.5590 C.ar  141  TYR141      0.0417
    186  CE2        6.2800   25.5840   59.0730 C.ar  141  TYR141      0.0417
    187  CZ         6.0080   26.5880   59.9690 C.ar  141  TYR141      0.1957
    188  OH         6.3630   26.3730   61.2720 O.3   141  TYR141     -0.2866
    189  N          7.5420   28.5770   53.5540 N.am  142  CYS142     -0.1968
    190  CA         8.3810   28.3330   52.4000 C.3   142  CYS142      0.1712
    191  C          9.7910   28.8580   52.5610 C.2   142  CYS142      0.2296
    192  O         10.7230   28.2190   52.1160 O.2   142  CYS142     -0.2864
    193  CB         7.7490   28.9380   51.1490 C.3   142  CYS142      0.0983
    194  SG         6.1320   28.2830   50.7850 S.3   142  CYS142     -0.0798
    195  N         13.1260   27.0390   53.4170 N.3   145  TRP145     -0.1227
    196  CA        13.8120   26.3010   52.3300 C.3   145  TRP145      0.1737
    197  C         14.8500   27.2030   51.6610 C.2   145  TRP145      0.2595
    198  O         14.5060   28.2830   51.1750 O.2   145  TRP145     -0.2718
    199  CB        12.8070   25.7780   51.2840 C.3   145  TRP145      0.0564
    200  CG        11.9490   24.6620   51.7990 C.ar  145  TRP145      0.0003
    201  CD1       10.6710   24.7630   52.2650 C.ar  145  TRP145      0.0946
    202  CD2       12.3080   23.2930   51.9170 C.ar  145  TRP145      0.0152
    203  NE1       10.2140   23.5420   52.6840 N.ar  145  TRP145     -0.2442
    204  CE2       11.1950   22.6150   52.4770 C.ar  145  TRP145      0.0810
    205  CE3       13.4630   22.5710   51.6260 C.ar  145  TRP145      0.0012
    206  CZ2       11.1980   21.2510   52.7280 C.ar  145  TRP145      0.0191
    207  CZ3       13.4690   21.1950   51.8630 C.ar  145  TRP145      0.0001
    208  CH2       12.3450   20.5490   52.4130 C.ar  145  TRP145      0.0015
    209  N         16.1140   26.7770   51.6710 N.am  146  LEU146     -0.1966
    210  CA        17.2200   27.5390   51.0550 C.3   146  LEU146      0.1728
    211  C         17.2930   27.3060   49.5340 C.2   146  LEU146      0.2616
    212  O         16.7410   26.3330   49.0290 O.2   146  LEU146     -0.2715
    213  CB        18.5550   27.1550   51.7030 C.3   146  LEU146      0.0311
    214  CG        18.6050   27.2220   53.2500 C.3   146  LEU146      0.0022
    215  CD1       19.8300   26.5260   53.7910 C.3   146  LEU146      0.0001
    216  CD2       18.5420   28.6660   53.7380 C.3   146  LEU146      0.0001
    217  N         17.9760   28.1960   48.8160 N.am  147  SER147     -0.1950
    218  CA        18.2220   28.0060   47.3680 C.3   147  SER147      0.1924
    219  C         19.1480   26.8180   47.0640 C.2   147  SER147      0.2314
    220  O         19.1270   26.2470   45.9520 O.2   147  SER147     -0.2863
    221  CB        18.8080   29.2800   46.7680 C.3   147  SER147      0.2116
    222  OG        20.1790   29.4320   47.1230 O.3   147  SER147     -0.2180
@<TRIPOS>BOND
     1   128   129    1
     2   129   130    1
     3   123   122    2
     4   115   114    2
     5   114   113    1
     6   120   121    1
     7   122   121    1
     8   130   132   am
     9   130   131    2
    10   132   133    1
    11   107   106    2
    12   121   124    1
    13   113   112    1
    14   113   116    1
    15   103   101   am
    16   124   125    1
    17   135   134    2
    18   106   112   am
    19   106   105    1
    20   136   133    1
    21   136   137    1
    22   133   134    1
    23    97   100    1
    24    97    96    1
    25    97    98    1
    26   104   105    1
    27   104    98   am
    28   127   125   am
    29   116   117    1
    30   100   101    1
    31   119   117    1
    32   134   138   am
    33   125   126    2
    34   101   102    2
    35   105   108    1
    36    98    99    2
    37   152   151    2
    38   151   150    1
    39   117   118    1
    40   108   109    1
    41    18    16   ar
    42    18    17   ar
    43    16    14   ar
    44   138   139    1
    45    75    74    1
    46    17    15   ar
    47    14    13    1
    48    14    15   ar
    49     4     3    2
    50     1     2    1
    51   110   109   ar
    52   139   140    1
    53   139   142    1
    54    13    10    1
    55   149   150    1
    56   149   140   am
    57   109   111   ar
    58   150   153    1
    59    79    78    2
    60   140   141    2
    61     3     2    1
    62     3     9   am
    63    61    60    2
    64   153   154    1
    65    58    59    1
    66     2     5    1
    67   142   143    1
    68    74    71    1
    69    78    77    1
    70   220   219    2
    71    10     9    1
    72    10    11    1
    73    60    59    1
    74     5     6    1
    75    22    21    2
    76    59    62    1
    77    77    76    1
    78    77    80    1
    79    76    72   am
    80   221   222    1
    81   221   218    1
    82   143   145   ar
    83   143   144   ar
    84   154   156   ar
    85   154   155   ar
    86    70    71    1
    87    70    68   am
    88    66    67    1
    89    62    63    1
    90    71    72    1
    91   219   218    1
    92   156   158   ar
    93    11    12    2
    94    11    19   am
    95   145   147   ar
    96    72    73    2
    97   218   217    1
    98    67    68    1
    99   144   146   ar
   100    19    20    1
   101    68    69    2
   102   155   157   ar
   103     6     7    1
   104     6     8    1
   105    21    20    1
   106    63    65   ar
   107    63    64   ar
   108   147   148   ar
   109   158   159   ar
   110   146   148   ar
   111    20    23    1
   112   217   211   am
   113   212   211    2
   114   157   159   ar
   115    23    24    1
   116   164   163    2
   117   159   160    1
   118   161   162    1
   119   211   210    1
   120    24    25    1
   121    91    92    2
   122    91    90    1
   123    27    28    1
   124    26    25    1
   125    95    93    1
   126    31    28    1
   127    31    32    1
   128   163   162    1
   129    83    84    2
   130    83    82    1
   131   162   165    1
   132   165   166    1
   133   194   193    1
   134    93    90    1
   135    93    94    1
   136    34    32   ar
   137    34    36   ar
   138    28    29    1
   139   210   209    1
   140   210   213    1
   141    90    89    1
   142    29    30    2
   143    81    82    1
   144   193   190    1
   145   198   197    2
   146    32    33   ar
   147   199   200    1
   148   199   196    1
   149   167   166   ar
   150   167   169   ar
   151    82    85    1
   152   205   207   ar
   153   205   202   ar
   154   197   209   am
   155   197   196    1
   156    36    37   ar
   157   213   214    1
   158   166   168   ar
   159   200   202   ar
   160   200   201   ar
   161   207   208   ar
   162   202   204   ar
   163   192   191    2
   164    85    86    1
   165   201   203   ar
   166   196   195    1
   167    33    35   ar
   168   190   191    1
   169   190   189    1
   170   208   206   ar
   171   204   203   ar
   172   204   206   ar
   173   169   170   ar
   174    37    35   ar
   175    37    38    1
   176   171   172    1
   177   168   170   ar
   178   214   216    1
   179   214   215    1
   180   174   173    2
   181   189   179   am
   182    86    87    2
   183    86    88   am
   184   180   179    2
   185   179   178    1
   186   173   172    1
   187   173   177   am
   188   172   175    1
   189    56    55    1
   190   175   176    1
   191   177   178    1
   192   178   181    1
   193    57    55    1
   194    55    54    1
   195   181   182    1
   196    54    51    1
   197   182   184   ar
   198   182   183   ar
   199   184   186   ar
   200    51    50    1
   201    51    52    1
   202   183   185   ar
   203    50    41   am
   204    53    52    2
   205   186   187   ar
   206    46    48   ar
   207    46    44   ar
   208    48    49   ar
   209   185   187   ar
   210    43    44    1
   211    43    40    1
   212    41    42    2
   213    41    40    1
   214   187   188    1
   215    44    45   ar
   216    40    39    1
   217    49    47   ar
   218    45    47   ar
