@<TRIPOS>MOLECULE
tmp/2efjA01.pdb
 128 126 0 0 0
SMALL
GASTEIGER

@<TRIPOS>ATOM
      1  N          6.7740   19.5320   47.5990 N.3     7  MET7       -0.1245
      2  CA         6.0620   18.7180   48.5760 C.3     7  MET7        0.1570
      3  C          5.5360   17.4500   47.8870 C.2     7  MET7        0.2261
      4  O          5.4320   17.4010   46.6520 O.2     7  MET7       -0.2867
      5  CB         4.9230   19.5260   49.2280 C.3     7  MET7        0.0387
      6  CG         5.3530   20.8440   49.9190 C.3     7  MET7        0.0595
      7  SD         6.5480   20.6110   51.2760 S.3     7  MET7       -0.1393
      8  CE         8.1310   20.6760   50.4180 C.3     7  MET7        0.0692
      9  N          0.9850   15.7690   50.2550 N.3    12  TYR12      -0.1241
     10  CA         0.9170   17.0040   51.0290 C.3    12  TYR12       0.1605
     11  C         -0.5330   17.5010   51.0960 C.2    12  TYR12       0.2264
     12  O         -0.9780   17.9850   52.1440 O.2    12  TYR12      -0.2867
     13  CB         1.8400   18.0870   50.4530 C.3    12  TYR12       0.0534
     14  CG         1.8250   19.3810   51.2510 C.ar   12  TYR12      -0.0201
     15  CD1        2.6900   19.5630   52.3320 C.ar   12  TYR12      -0.0009
     16  CD2        0.9390   20.4140   50.9330 C.ar   12  TYR12      -0.0009
     17  CE1        2.6720   20.7320   53.0750 C.ar   12  TYR12       0.0417
     18  CE2        0.9110   21.5940   51.6720 C.ar   12  TYR12       0.0417
     19  CZ         1.7820   21.7470   52.7440 C.ar   12  TYR12       0.1957
     20  OH         1.7670   22.9070   53.4920 O.3    12  TYR12      -0.2866
     21  N         -3.1250   24.4810   61.1060 N.3    20  LEU20      -0.1231
     22  CA        -1.7660   24.4240   61.6230 C.3    20  LEU20       0.1693
     23  C         -1.1610   25.8160   61.6580 C.2    20  LEU20       0.2592
     24  O         -0.8590   26.3270   62.7360 O.2    20  LEU20      -0.2718
     25  CB        -0.9100   23.4270   60.8350 C.3    20  LEU20       0.0284
     26  CG         0.2860   22.7170   61.4790 C.3    20  LEU20       0.0019
     27  CD1       -0.0510   21.9910   62.7790 C.3    20  LEU20       0.0001
     28  CD2        0.9200   21.7230   60.4980 C.3    20  LEU20       0.0001
     29  N         -1.0210   26.4420   60.4930 N.am   21  PHE21      -0.1976
     30  CA        -0.4250   27.7770   60.4280 C.3    21  PHE21       0.1639
     31  C         -1.3790   28.8390   59.8690 C.2    21  PHE21       0.2290
     32  O         -1.4560   29.9590   60.4080 O.2    21  PHE21      -0.2864
     33  CB         0.9070   27.7550   59.6470 C.3    21  PHE21       0.0560
     34  CG         1.8420   26.6290   60.0580 C.ar   21  PHE21      -0.0200
     35  CD1        2.4210   26.5990   61.3370 C.ar   21  PHE21      -0.0042
     36  CD2        2.1550   25.6130   59.1640 C.ar   21  PHE21      -0.0042
     37  CE1        3.2770   25.5600   61.7260 C.ar   21  PHE21      -0.0003
     38  CE2        3.0080   24.5690   59.5360 C.ar   21  PHE21      -0.0003
     39  CZ         3.5730   24.5370   60.8160 C.ar   21  PHE21      -0.0000
     40  N          5.2240   29.3320   55.0410 N.3   141  TYR141     -0.1241
     41  CA         5.9470   28.0930   55.2750 C.3   141  TYR141      0.1605
     42  C          6.8460   27.6050   54.1410 C.2   141  TYR141      0.2264
     43  O          6.9500   26.3870   53.8460 O.2   141  TYR141     -0.2867
     44  CB         5.0200   27.0290   55.8620 C.3   141  TYR141      0.0534
     45  CG         5.3190   26.8780   57.3160 C.ar  141  TYR141     -0.0201
     46  CD1        5.0650   27.9160   58.2230 C.ar  141  TYR141     -0.0009
     47  CD2        5.9450   25.7320   57.7760 C.ar  141  TYR141     -0.0009
     48  CE1        5.3960   27.7730   59.5590 C.ar  141  TYR141      0.0417
     49  CE2        6.2800   25.5840   59.0730 C.ar  141  TYR141      0.0417
     50  CZ         6.0080   26.5880   59.9690 C.ar  141  TYR141      0.1957
     51  OH         6.3630   26.3730   61.2720 O.3   141  TYR141     -0.2866
     52  N         11.9890   29.1020   54.8360 N.3   144  HIS144     -0.1226
     53  CA        13.0300   28.3050   55.5130 C.3   144  HIS144      0.1752
     54  C         13.7580   27.3600   54.5500 C.2   144  HIS144      0.2596
     55  O         14.8720   26.9170   54.8390 O.2   144  HIS144     -0.2718
     56  CB        12.4200   27.5440   56.6940 C.3   144  HIS144      0.0759
     57  CG        11.1260   26.8640   56.3680 C.ar  144  HIS144      0.0818
     58  ND1        9.9090   27.3250   56.8190 N.ar  144  HIS144     -0.2268
     59  CD2       10.8650   25.7360   55.6620 C.ar  144  HIS144      0.1154
     60  CE1        8.9530   26.5240   56.3880 C.ar  144  HIS144      0.1986
     61  NE2        9.5060   25.5490   55.6880 N.ar  144  HIS144     -0.2212
     62  N         13.1260   27.0390   53.4170 N.am  145  TRP145     -0.1976
     63  CA        13.8120   26.3010   52.3300 C.3   145  TRP145      0.1640
     64  C         14.8500   27.2030   51.6610 C.2   145  TRP145      0.2290
     65  O         14.5060   28.2830   51.1750 O.2   145  TRP145     -0.2864
     66  CB        12.8070   25.7780   51.2840 C.3   145  TRP145      0.0576
     67  CG        11.9490   24.6620   51.7990 C.ar  145  TRP145      0.0006
     68  CD1       10.6710   24.7630   52.2650 C.ar  145  TRP145      0.0946
     69  CD2       12.3080   23.2930   51.9170 C.ar  145  TRP145      0.0152
     70  NE1       10.2140   23.5420   52.6840 N.ar  145  TRP145     -0.2442
     71  CE2       11.1950   22.6150   52.4770 C.ar  145  TRP145      0.0810
     72  CE3       13.4630   22.5710   51.6260 C.ar  145  TRP145      0.0012
     73  CZ2       11.1980   21.2510   52.7280 C.ar  145  TRP145      0.0191
     74  CZ3       13.4690   21.1950   51.8630 C.ar  145  TRP145      0.0001
     75  CH2       12.3450   20.5490   52.4130 C.ar  145  TRP145      0.0015
     76  N          9.3630   28.8050   59.5040 N.3   204  ILE204     -0.1245
     77  CA         9.8820   28.2090   60.7270 C.3   204  ILE204      0.1561
     78  C         10.8360   29.1710   61.4260 C.2   204  ILE204      0.2260
     79  O         11.6580   29.7840   60.7740 O.2   204  ILE204     -0.2867
     80  CB        10.6270   26.8710   60.4250 C.3   204  ILE204      0.0252
     81  CG1        9.6570   25.8030   59.9150 C.3   204  ILE204      0.0019
     82  CG2       11.3570   26.3480   61.6680 C.3   204  ILE204      0.0019
     83  CD1       10.3720   24.5520   59.4240 C.3   204  ILE204      0.0001
     84  N         10.0230   20.0020   62.5080 N.3   215  SER215     -0.1217
     85  CA         9.9180   18.7880   61.6790 C.3   215  SER215      0.1889
     86  C         11.2710   18.2070   61.2360 C.2   215  SER215      0.2288
     87  O         11.4300   16.9680   61.1710 O.2   215  SER215     -0.2866
     88  CB         9.0210   19.0510   60.4600 C.3   215  SER215      0.2089
     89  OG         9.5800   20.0520   59.6380 O.3   215  SER215     -0.2183
     90  N          2.5940   13.7240   58.1400 N.3   297  VAL297     -0.1245
     91  CA         2.8460   15.1140   57.7630 C.3   297  VAL297      0.1561
     92  C          4.3510   15.2850   57.5010 C.2   297  VAL297      0.2260
     93  O          4.7430   15.7870   56.4530 O.2   297  VAL297     -0.2867
     94  CB         2.3320   16.1130   58.8310 C.3   297  VAL297      0.0252
     95  CG1        2.8680   17.5240   58.5910 C.3   297  VAL297      0.0019
     96  CG2        0.8010   16.1330   58.8790 C.3   297  VAL297      0.0019
     97  N          6.4320   16.1870   53.7480 N.3   301  ILE301     -0.1231
     98  CA         7.3350   17.3200   53.5260 C.3   301  ILE301      0.1692
     99  C          8.6530   16.8560   52.9280 C.2   301  ILE301      0.2592
    100  O          9.1750   17.4690   51.9830 O.2   301  ILE301     -0.2718
    101  CB         7.6320   18.0640   54.8630 C.3   301  ILE301      0.0266
    102  CG1        6.3430   18.6100   55.4780 C.3   301  ILE301      0.0019
    103  CG2        8.6130   19.2040   54.6510 C.3   301  ILE301      0.0020
    104  CD1        6.4430   18.6890   56.9580 C.3   301  ILE301      0.0001
    105  N          9.1660   15.7380   53.4300 N.am  302  TYR302     -0.1976
    106  CA        10.5290   15.3270   53.0910 C.3   302  TYR302      0.1639
    107  C         10.7050   14.1270   52.1570 C.2   302  TYR302      0.2290
    108  O         11.8400   13.8380   51.7770 O.2   302  TYR302     -0.2864
    109  CB        11.3700   15.1360   54.3800 C.3   302  TYR302      0.0560
    110  CG        11.3910   16.3790   55.2630 C.ar  302  TYR302     -0.0198
    111  CD1       12.1920   17.4740   54.9390 C.ar  302  TYR302     -0.0009
    112  CD2       10.6190   16.4450   56.4450 C.ar  302  TYR302     -0.0009
    113  CE1       12.2050   18.6270   55.7470 C.ar  302  TYR302      0.0417
    114  CE2       10.6310   17.5740   57.2550 C.ar  302  TYR302      0.0417
    115  CZ        11.4260   18.6630   56.8960 C.ar  302  TYR302      0.1957
    116  OH        11.4520   19.7890   57.6800 O.3   302  TYR302     -0.2866
    117  N          5.5030   23.2880   66.5700 N.3   337  TYR337     -0.1241
    118  CA         6.2810   23.8990   65.5070 C.3   337  TYR337      0.1605
    119  C          6.3290   25.4120   65.7410 C.2   337  TYR337      0.2264
    120  O          5.3080   26.0840   65.6690 O.2   337  TYR337     -0.2867
    121  CB         5.6350   23.6420   64.1510 C.3   337  TYR337      0.0534
    122  CG         5.4950   22.2060   63.7620 C.ar  337  TYR337     -0.0201
    123  CD1        6.6160   21.3600   63.7070 C.ar  337  TYR337     -0.0009
    124  CD2        4.2480   21.6890   63.4130 C.ar  337  TYR337     -0.0009
    125  CE1        6.5030   20.0370   63.3280 C.ar  337  TYR337      0.0417
    126  CE2        4.1180   20.3580   63.0250 C.ar  337  TYR337      0.0417
    127  CZ         5.2580   19.5390   62.9740 C.ar  337  TYR337      0.1957
    128  OH         5.1440   18.2150   62.6080 O.3   337  TYR337     -0.2866
@<TRIPOS>BOND
     1     4     3    2
     2     1     2    1
     3     3     2    1
     4     2     5    1
     5     5     6    1
     6     6     7    1
     7     9    10    1
     8     8     7    1
     9    13    10    1
    10    13    14    1
    11    16    14   ar
    12    16    18   ar
    13    10    11    1
    14    11    12    2
    15    65    64    2
    16    14    15   ar
    17    66    67    1
    18    66    63    1
    19    72    74   ar
    20    72    69   ar
    21    64    63    1
    22    18    19   ar
    23   108   107    2
    24    67    69   ar
    25    67    68   ar
    26    74    75   ar
    27    69    71   ar
    28   100    99    2
    29   107   106    1
    30    68    70   ar
    31    63    62    1
    32    15    17   ar
    33    75    73   ar
    34    71    70   ar
    35    71    73   ar
    36    19    17   ar
    37    19    20    1
    38    99   105   am
    39    99    98    1
    40   106   105    1
    41   106   109    1
    42    62    54   am
    43    98    97    1
    44    98   101    1
    45    43    42    2
    46    42    41    1
    47   109   110    1
    48    54    55    2
    49    54    53    1
    50   103   101    1
    51    52    53    1
    52   101   102    1
    53   111   110   ar
    54   111   113   ar
    55    40    41    1
    56   110   112   ar
    57    41    44    1
    58   102   104    1
    59    53    56    1
    60    59    61   ar
    61    59    57   ar
    62    61    60   ar
    63   113   115   ar
    64    44    45    1
    65    57    56    1
    66    57    58   ar
    67    60    58   ar
    68   112   114   ar
    69    93    92    2
    70   115   114   ar
    71   115   116    1
    72    45    47   ar
    73    45    46   ar
    74    92    91    1
    75    91    90    1
    76    91    94    1
    77    47    49   ar
    78    46    48   ar
    79    95    94    1
    80    94    96    1
    81    49    50   ar
    82    36    38   ar
    83    36    34   ar
    84    83    81    1
    85    76    77    1
    86    38    39   ar
    87    48    50   ar
    88    89    88    1
    89    33    34    1
    90    33    30    1
    91    31    32    2
    92    31    30    1
    93    81    80    1
    94    50    51    1
    95    34    35   ar
    96    80    77    1
    97    80    82    1
    98    30    29    1
    99    88    85    1
   100    29    23   am
   101    28    26    1
   102    77    78    1
   103    79    78    2
   104    39    37   ar
   105    25    26    1
   106    25    22    1
   107    21    22    1
   108    87    86    2
   109    86    85    1
   110    35    37   ar
   111    26    27    1
   112    22    23    1
   113    23    24    2
   114    85    84    1
   115   128   127    1
   116   127   126   ar
   117   127   125   ar
   118   126   124   ar
   119   125   123   ar
   120   124   122   ar
   121   123   122   ar
   122   122   121    1
   123   121   118    1
   124   118   119    1
   125   118   117    1
   126   120   119    2
