@<TRIPOS>MOLECULE
tmp/2efuA00.pdb
 155 149 0 0 0
SMALL
GASTEIGER

@<TRIPOS>ATOM
      1  N        -12.3380   38.3450   95.0420 N.3    58  ALA58      -0.1231
      2  CA       -12.4840   38.2500   93.5860 C.3    58  ALA58       0.1694
      3  C        -11.6110   37.1330   93.0030 C.2    58  ALA58       0.2592
      4  O        -11.6190   36.0170   93.5190 O.2    58  ALA58      -0.2718
      5  CB       -12.1990   39.6140   92.9110 C.3    58  ALA58       0.0304
      6  N        -10.8540   37.4170   91.9470 N.am   59  SER59      -0.1952
      7  CA       -10.1420   36.3340   91.2550 C.3    59  SER59       0.1924
      8  C         -8.9160   35.7530   91.9750 C.2    59  SER59       0.2314
      9  O         -8.2790   34.8580   91.4450 O.2    59  SER59      -0.2863
     10  CB        -9.7740   36.7250   89.8360 C.3    59  SER59       0.2116
     11  OG        -8.6420   37.5600   89.8550 O.3    59  SER59      -0.2180
     12  N        -17.5670   35.5160   80.1110 N.3   112  PHE112     -0.1227
     13  CA       -18.8880   35.9760   80.5170 C.3   112  PHE112      0.1736
     14  C        -18.9140   37.3280   81.2490 C.2   112  PHE112      0.2595
     15  O        -19.9730   37.9640   81.3300 O.2   112  PHE112     -0.2718
     16  CB       -19.5550   34.9180   81.4040 C.3   112  PHE112      0.0547
     17  CG       -18.7910   34.6050   82.6650 C.ar  112  PHE112     -0.0202
     18  CD1      -19.0760   35.2720   83.8510 C.ar  112  PHE112     -0.0042
     19  CD2      -17.7910   33.6390   82.6680 C.ar  112  PHE112     -0.0042
     20  CE1      -18.3940   34.9760   85.0160 C.ar  112  PHE112     -0.0003
     21  CE2      -17.1040   33.3390   83.8320 C.ar  112  PHE112     -0.0003
     22  CZ       -17.4070   34.0030   85.0090 C.ar  112  PHE112     -0.0000
     23  N        -17.7670   37.7490   81.7820 N.am  113  GLU113     -0.1979
     24  CA       -17.7260   38.8510   82.7540 C.3   113  GLU113      0.1602
     25  C        -18.1970   40.1910   82.2130 C.2   113  GLU113      0.2287
     26  O        -18.8790   40.9570   82.8970 O.2   113  GLU113     -0.2864
     27  CB       -16.3280   39.0290   83.3360 C.3   113  GLU113      0.0415
     28  CG       -16.3240   40.0680   84.4530 C.3   113  GLU113      0.1163
     29  CD       -14.9910   40.1980   85.1360 C.2   113  GLU113      0.3649
     30  OE1      -14.0050   39.6380   84.6160 O.co2 113  GLU113     -0.2457
     31  OE2      -14.9330   40.8660   86.1900 O.co2 113  GLU113     -0.2457
     32  N        -22.1120   40.0420   81.9150 N.3   116  MET116     -0.1245
     33  CA       -22.9310   39.6640   83.0570 C.3   116  MET116      0.1570
     34  C        -23.3220   40.8820   83.8970 C.2   116  MET116      0.2261
     35  O        -22.4510   41.6220   84.3420 O.2   116  MET116     -0.2867
     36  CB       -22.2030   38.6250   83.9090 C.3   116  MET116      0.0387
     37  CG       -23.0520   38.0640   85.0360 C.3   116  MET116      0.0595
     38  SD       -22.2130   36.8270   86.0240 S.3   116  MET116     -0.1393
     39  CE       -22.4290   35.3580   85.0120 C.3   116  MET116      0.0692
     40  N        -23.7410   43.1880   86.7820 N.3   118  MET118     -0.1245
     41  CA       -23.2070   43.2320   88.1470 C.3   118  MET118      0.1570
     42  C        -24.2890   43.5160   89.1890 C.2   118  MET118      0.2261
     43  O        -24.1410   43.1430   90.3460 O.2   118  MET118     -0.2867
     44  CB       -22.0800   44.2660   88.2760 C.3   118  MET118      0.0387
     45  CG       -20.7400   43.8630   87.6730 C.3   118  MET118      0.0595
     46  SD       -20.0030   42.3120   88.2760 S.3   118  MET118     -0.1393
     47  CE       -20.4930   41.2020   86.9570 C.3   118  MET118      0.0692
     48  N         -6.8740   36.6300   79.4120 N.3   148  TYR148     -0.1241
     49  CA        -7.4400   36.3050   80.7170 C.3   148  TYR148      0.1605
     50  C         -8.8160   35.6700   80.5620 C.2   148  TYR148      0.2264
     51  O         -9.7060   36.2320   79.9120 O.2   148  TYR148     -0.2867
     52  CB        -7.4910   37.5650   81.5810 C.3   148  TYR148      0.0534
     53  CG        -7.8440   37.3150   83.0190 C.ar  148  TYR148     -0.0201
     54  CD1       -6.8830   36.8700   83.9320 C.ar  148  TYR148     -0.0009
     55  CD2       -9.1460   37.5250   83.4710 C.ar  148  TYR148     -0.0009
     56  CE1       -7.2140   36.6410   85.2620 C.ar  148  TYR148      0.0417
     57  CE2       -9.4900   37.3030   84.7920 C.ar  148  TYR148      0.0417
     58  CZ        -8.5220   36.8660   85.6860 C.ar  148  TYR148      0.1957
     59  OH        -8.8860   36.6690   86.9980 O.3   148  TYR148     -0.2866
     60  N        -12.0280   33.7870   82.6210 N.3   150  ASN150     -0.1240
     61  CA       -12.8310   33.4080   83.7900 C.3   150  ASN150      0.1653
     62  C        -13.5070   32.0620   83.5740 C.2   150  ASN150      0.2266
     63  O        -13.4940   31.2100   84.4570 O.2   150  ASN150     -0.2867
     64  CB       -13.8890   34.4640   84.0800 C.3   150  ASN150      0.1155
     65  CG       -13.2950   35.7770   84.4780 C.2   150  ASN150      0.2627
     66  OD1      -12.6410   35.8790   85.5170 O.2   150  ASN150     -0.2716
     67  ND2      -13.5300   36.8050   83.6690 N.am  150  ASN150     -0.0877
     68  N        -15.6530   48.2200   82.7820 N.3   213  GLN213     -0.1231
     69  CA       -15.5050   46.8090   82.4050 C.3   213  GLN213      0.1698
     70  C        -16.7590   45.9860   82.7110 C.2   213  GLN213      0.2592
     71  O        -16.8900   44.8540   82.2690 O.2   213  GLN213     -0.2718
     72  CB       -14.3020   46.1890   83.1310 C.3   213  GLN213      0.0381
     73  CG       -14.6000   45.8440   84.5880 C.3   213  GLN213      0.0905
     74  CD       -13.4280   45.2270   85.2900 C.2   213  GLN213      0.2608
     75  OE1      -13.2480   44.0060   85.2690 O.2   213  GLN213     -0.2717
     76  NE2      -12.6070   46.0700   85.9210 N.am  213  GLN213     -0.0878
     77  N        -17.6610   46.5550   83.4950 N.am  214  TRP214     -0.1976
     78  CA       -18.8470   45.8520   83.9410 C.3   214  TRP214      0.1640
     79  C        -20.1150   46.5680   83.5140 C.2   214  TRP214      0.2290
     80  O        -20.1530   47.7950   83.4030 O.2   214  TRP214     -0.2864
     81  CB       -18.8680   45.7540   85.4620 C.3   214  TRP214      0.0576
     82  CG       -17.7770   44.9360   86.0730 C.ar  214  TRP214      0.0006
     83  CD1      -17.4320   43.6570   85.7500 C.ar  214  TRP214      0.0946
     84  CD2      -16.9200   45.3230   87.1520 C.ar  214  TRP214      0.0152
     85  NE1      -16.4080   43.2250   86.5480 N.ar  214  TRP214     -0.2442
     86  CE2      -16.0680   44.2260   87.4190 C.ar  214  TRP214      0.0810
     87  CE3      -16.7850   46.4900   87.9170 C.ar  214  TRP214      0.0012
     88  CZ2      -15.0820   44.2580   88.4240 C.ar  214  TRP214      0.0191
     89  CZ3      -15.7990   46.5330   88.9140 C.ar  214  TRP214      0.0001
     90  CH2      -14.9640   45.4150   89.1590 C.ar  214  TRP214      0.0015
     91  N        -23.5230   42.5060   93.4230 N.3   233  PHE233     -0.1241
     92  CA       -23.3290   41.3090   92.6180 C.3   233  PHE233      0.1605
     93  C        -23.3770   40.0440   93.4730 C.2   233  PHE233      0.2264
     94  O        -22.6150   39.9200   94.4270 O.2   233  PHE233     -0.2867
     95  CB       -21.9950   41.4230   91.8710 C.3   233  PHE233      0.0534
     96  CG       -21.7060   40.2830   90.9500 C.ar  233  PHE233     -0.0203
     97  CD1      -22.5620   39.9820   89.8930 C.ar  233  PHE233     -0.0042
     98  CD2      -20.5470   39.5220   91.1180 C.ar  233  PHE233     -0.0042
     99  CE1      -22.2850   38.9220   89.0380 C.ar  233  PHE233     -0.0003
    100  CE2      -20.2590   38.4600   90.2690 C.ar  233  PHE233     -0.0003
    101  CZ       -21.1190   38.1670   89.2270 C.ar  233  PHE233     -0.0000
    102  N        -19.8110   34.9060   89.8240 N.3   238  ALA238     -0.1245
    103  CA       -18.3680   34.7700   89.6170 C.3   238  ALA238      0.1562
    104  C        -17.9350   33.3080   89.7860 C.2   238  ALA238      0.2260
    105  O        -16.9570   32.8730   89.1790 O.2   238  ALA238     -0.2867
    106  CB       -17.5910   35.6780   90.5560 C.3   238  ALA238      0.0290
    107  N        -14.3750   31.4790   89.3450 N.3   241  ALA241     -0.1231
    108  CA       -13.5500   32.5920   88.8710 C.3   241  ALA241      0.1697
    109  C        -13.3490   33.7450   89.8860 C.2   241  ALA241      0.2631
    110  O        -12.4190   34.5440   89.7260 O.2   241  ALA241     -0.2714
    111  CB       -14.1030   33.1290   87.5510 C.3   241  ALA241      0.0304
    112  N        -14.1960   33.8390   90.9150 N.am  242  GLY242     -0.1732
    113  CA       -14.0220   34.8790   91.9480 C.2   242  GLY242      0.1340
    114  C        -15.0510   35.0600   93.0670 C.2   242  GLY242      0.2521
    115  O        -15.4200   36.2020   93.3880 O.2   242  GLY242     -0.2816
    116  N         -2.7550   41.5460   82.0340 N.3   281  PHE281     -0.1241
    117  CA        -4.0580   41.9400   82.5800 C.3   281  PHE281      0.1605
    118  C         -4.1160   43.4730   82.5770 C.2   281  PHE281      0.2264
    119  O         -3.2280   44.1220   83.1520 O.2   281  PHE281     -0.2867
    120  CB        -4.2800   41.3740   83.9940 C.3   281  PHE281      0.0534
    121  CG        -5.6820   41.5850   84.5170 C.ar  281  PHE281     -0.0203
    122  CD1       -6.5880   40.5250   84.5720 C.ar  281  PHE281     -0.0042
    123  CD2       -6.1020   42.8390   84.9410 C.ar  281  PHE281     -0.0042
    124  CE1       -7.8910   40.7210   85.0360 C.ar  281  PHE281     -0.0003
    125  CE2       -7.3930   43.0390   85.4090 C.ar  281  PHE281     -0.0003
    126  CZ        -8.2930   41.9830   85.4540 C.ar  281  PHE281     -0.0000
    127  N         -4.3110   39.2460   91.4230 N.3   307  LEU307     -0.1231
    128  CA        -5.0680   40.4610   91.6430 C.3   307  LEU307      0.1693
    129  C         -6.5410   40.0840   91.7130 C.2   307  LEU307      0.2593
    130  O         -6.9390   39.0370   91.2000 O.2   307  LEU307     -0.2718
    131  CB        -4.8190   41.4570   90.5140 C.3   307  LEU307      0.0284
    132  CG        -5.2390   41.0300   89.1030 C.3   307  LEU307      0.0019
    133  CD1       -6.6540   41.5280   88.8220 C.3   307  LEU307      0.0001
    134  CD2       -4.2720   41.5860   88.0710 C.3   307  LEU307      0.0001
    135  N         -7.3420   40.9350   92.3480 N.am  308  GLY308     -0.1942
    136  CA        -8.7860   40.7320   92.4310 C.3   308  GLY308      0.2014
    137  C         -9.5300   42.0400   92.2110 C.2   308  GLY308      0.2639
    138  O         -9.1650   43.0750   92.7660 O.2   308  GLY308     -0.2714
    139  N        -10.5450   41.9960   91.3570 N.am  309  GLN309     -0.1963
    140  CA       -11.3830   43.1490   91.0920 C.3   309  GLN309      0.1733
    141  C        -12.8210   42.7030   91.0590 C.2   309  GLN309      0.2616
    142  O        -13.2360   41.9800   90.1710 O.2   309  GLN309     -0.2715
    143  CB       -11.0310   43.8090   89.7580 C.3   309  GLN309      0.0408
    144  CG        -9.6000   44.2530   89.6360 C.3   309  GLN309      0.0908
    145  CD        -9.3050   44.8320   88.2790 C.2   309  GLN309      0.2608
    146  OE1      -10.0180   44.5630   87.3030 O.2   309  GLN309     -0.2717
    147  NE2       -8.2520   45.6390   88.2000 N.am  309  GLN309     -0.0878
    148  N        -13.5770   43.1430   92.0550 N.am  310  ILE310     -0.1977
    149  CA       -15.0050   42.8890   92.1200 C.3   310  ILE310      0.1596
    150  C        -15.5790   44.1880   92.7060 C.2   310  ILE310      0.2287
    151  O        -14.9610   44.7590   93.6020 O.2   310  ILE310     -0.2864
    152  CB       -15.2730   41.6140   92.9670 C.3   310  ILE310      0.0276
    153  CG1      -16.6210   40.9820   92.6060 C.3   310  ILE310      0.0022
    154  CG2      -15.0500   41.8590   94.4790 C.3   310  ILE310      0.0022
    155  CD1      -16.9210   39.6980   93.3790 C.3   310  ILE310      0.0001
@<TRIPOS>BOND
     1    48    49    1
     2    51    50    2
     3    12    13    1
     4    13    14    1
     5    13    16    1
     6    50    49    1
     7    49    52    1
     8    14    15    2
     9    14    23   am
    10    16    17    1
    11    52    53    1
    12    23    24    1
    13    32    33    1
    14   116   117    1
    15    25    24    1
    16    25    26    2
    17    71    70    2
    18    69    70    1
    19    69    68    1
    20    69    72    1
    21   118   117    1
    22   118   119    2
    23   117   120    1
    24    60    61    1
    25    17    19   ar
    26    17    18   ar
    27    19    21   ar
    28    70    77   am
    29    24    27    1
    30    53    55   ar
    31    53    54   ar
    32    33    34    1
    33    33    36    1
    34    72    73    1
    35    27    28    1
    36    80    79    2
    37    55    57   ar
    38    77    78    1
    39    79    78    1
    40    62    61    1
    41    62    63    2
    42    67    65   am
    43    61    64    1
    44    21    22   ar
    45    18    20   ar
    46    34    35    2
    47    36    37    1
    48    54    56   ar
    49    78    81    1
    50   120   121    1
    51    64    65    1
    52    28    29    1
    53    65    66    2
    54   121   122   ar
    55   121   123   ar
    56   122   124   ar
    57    73    74    1
    58    30    29   ar
    59    57    58   ar
    60   123   125   ar
    61    22    20   ar
    62    39    38    1
    63    37    38    1
    64   124   126   ar
    65    29    31   ar
    66    56    58   ar
    67    75    74    2
    68    74    76   am
    69   125   126   ar
    70    81    82    1
    71    58    59    1
    72    83    82   ar
    73    83    85   ar
    74    82    84   ar
    75    85    86   ar
    76    40    41    1
    77    47    46    1
    78    84    86   ar
    79    84    87   ar
    80   146   145    2
    81    86    88   ar
    82   111   108    1
    83    45    46    1
    84    45    44    1
    85    87    89   ar
    86   134   132    1
    87    41    44    1
    88    41    42    1
    89   147   145   am
    90   145   144    1
    91    88    90   ar
    92   133   132    1
    93   108   107    1
    94   108   109    1
    95    89    90   ar
    96    99   101   ar
    97    99    97   ar
    98   132   131    1
    99   105   104    2
   100    42    43    2
   101   101   100   ar
   102   103   104    1
   103   103   102    1
   104   103   106    1
   105   144   143    1
   106   110   109    2
   107   143   140    1
   108    10    11    1
   109    10     7    1
   110   109   112    1
   111    97    96   ar
   112   142   141    2
   113   100    98   ar
   114   131   128    1
   115   112   113    2
   116    96    98   ar
   117    96    95    1
   118   141   140    1
   119   141   148   am
   120   140   139    1
   121   130   129    2
   122     7     6    1
   123     7     8    1
   124   139   137   am
   125   127   128    1
   126     9     8    2
   127   128   129    1
   128   129   135   am
   129    95    92    1
   130     6     3   am
   131   113   114    1
   132   148   149    1
   133   149   150    1
   134   149   152    1
   135   137   136    1
   136   137   138    2
   137   135   136    1
   138   153   152    1
   139   153   155    1
   140    92    91    1
   141    92    93    1
   142   150   151    2
   143     5     2    1
   144   152   154    1
   145     3     4    2
   146     3     2    1
   147   114   115    2
   148    93    94    2
   149     2     1    1
