@<TRIPOS>MOLECULE
tmp/2efuF00.pdb
 111 107 0 0 0
SMALL
GASTEIGER

@<TRIPOS>ATOM
      1  N         27.4000   12.5990   89.4130 N.3    53  ALA53      -0.1231
      2  CA        26.1000   12.1930   88.8540 C.3    53  ALA53       0.1694
      3  C         25.6960   13.0730   87.6660 C.2    53  ALA53       0.2592
      4  O         26.5240   13.3640   86.7920 O.2    53  ALA53      -0.2718
      5  CB        25.0100   12.1810   89.9400 C.3    53  ALA53       0.0304
      6  N         24.4390   13.5140   87.6670 N.am   54  SER54      -0.1952
      7  CA        23.8390   14.2720   86.5670 C.3    54  SER54       0.1924
      8  C         24.6070   15.4910   86.0680 C.2    54  SER54       0.2314
      9  O         24.2800   16.0200   85.0040 O.2    54  SER54      -0.2863
     10  CB        22.4160   14.6900   86.9360 C.3    54  SER54       0.2116
     11  OG        21.5180   13.6190   86.7300 O.3    54  SER54      -0.2180
     12  N         15.4780    5.0400   82.4490 N.3   107  PHE107     -0.1227
     13  CA        15.9530    3.7870   83.0580 C.3   107  PHE107      0.1736
     14  C         15.5030    3.5100   84.4920 C.2   107  PHE107      0.2595
     15  O         15.2850    2.3490   84.8430 O.2   107  PHE107     -0.2718
     16  CB        17.3880    3.3250   82.7200 C.3   107  PHE107      0.0547
     17  CG        18.4300    4.4020   82.6730 C.ar  107  PHE107     -0.0202
     18  CD1       19.3480    4.5360   83.7090 C.ar  107  PHE107     -0.0042
     19  CD2       18.5630    5.2180   81.5530 C.ar  107  PHE107     -0.0042
     20  CE1       20.3640    5.5030   83.6520 C.ar  107  PHE107     -0.0003
     21  CE2       19.5770    6.1860   81.4880 C.ar  107  PHE107     -0.0003
     22  CZ        20.4790    6.3260   82.5370 C.ar  107  PHE107     -0.0000
     23  N         15.4740    4.4920   85.3810 N.am  108  GLU108     -0.1979
     24  CA        16.6120    4.9840   86.1250 C.3   108  GLU108      0.1602
     25  C         15.9480    4.5890   87.4420 C.2   108  GLU108      0.2287
     26  O         16.5690    4.0010   88.3330 O.2   108  GLU108     -0.2864
     27  CB        16.7790    6.4930   86.0920 C.3   108  GLU108      0.0415
     28  CG        17.6860    7.0130   87.2140 C.3   108  GLU108      0.1163
     29  CD        16.9050    7.6110   88.3780 C.2   108  GLU108      0.3649
     30  OE1       16.5060    6.8660   89.3070 O.co2 108  GLU108     -0.2457
     31  OE2       16.6950    8.8460   88.3610 O.co2 108  GLU108     -0.2457
     32  N         16.0060    0.9540   87.5970 N.3   111  MET111     -0.1231
     33  CA        17.3580    0.4590   87.8010 C.3   111  MET111      0.1687
     34  C         17.6930    0.3040   89.2840 C.2   111  MET111      0.2434
     35  O         17.4300    1.2140   90.0690 O.2   111  MET111     -0.2733
     36  CB        18.3660    1.3780   87.1150 C.3   111  MET111      0.0400
     37  CG        19.6870    0.7100   86.7940 C.3   111  MET111      0.0596
     38  SD        20.7540    1.7920   85.8570 S.3   111  MET111     -0.1393
     39  CE        20.4590    1.2250   84.1750 C.3   111  MET111      0.0692
     40  N         18.2500   -0.8610   89.6750 N.am  112  PRO112     -0.2718
     41  CA        18.7140   -1.0800   91.0540 C.3   112  PRO112      0.1535
     42  C         19.6690   -0.0100   91.5880 C.2   112  PRO112      0.2598
     43  O         20.6200    0.3960   90.9030 O.2   112  PRO112     -0.2715
     44  CB        19.4390   -2.4420   90.9800 C.3   112  PRO112      0.0310
     45  CG        19.5850   -2.7540   89.5240 C.3   112  PRO112      0.0237
     46  CD        18.4340   -2.0720   88.8530 C.3   112  PRO112      0.0939
     47  N         19.3830    0.4430   92.8090 N.am  113  MET113     -0.1978
     48  CA        20.2690    1.3120   93.5740 C.3   113  MET113      0.1605
     49  C         21.5180    0.5280   94.0100 C.2   113  MET113      0.2287
     50  O         22.6390    1.0640   94.0080 O.2   113  MET113     -0.2864
     51  CB        19.5190    1.8480   94.8010 C.3   113  MET113      0.0413
     52  CG        20.1940    3.0190   95.5250 C.3   113  MET113      0.0598
     53  SD        19.6600    3.2140   97.2480 S.3   113  MET113     -0.1393
     54  CE        17.9810    3.8270   97.0390 C.3   113  MET113      0.0692
     55  N         17.2430   10.9480   81.4840 N.3   145  ASN145     -0.1240
     56  CA        18.5590   10.3180   81.4580 C.3   145  ASN145      0.1653
     57  C         18.8830    9.6560   80.1080 C.2   145  ASN145      0.2266
     58  O         19.9720    9.8490   79.5700 O.2   145  ASN145     -0.2867
     59  CB        18.6510    9.2760   82.5780 C.3   145  ASN145      0.1155
     60  CG        18.5130    9.8860   83.9630 C.2   145  ASN145      0.2627
     61  OD1       19.3520   10.6930   84.3980 O.2   145  ASN145     -0.2716
     62  ND2       17.4590    9.4810   84.6770 N.am  145  ASN145     -0.0877
     63  N         25.9940    1.5840   93.9050 N.3   206  PHE206     -0.1241
     64  CA        25.5980    1.7920   92.5130 C.3   206  PHE206      0.1605
     65  C         26.7850    1.7500   91.5310 C.2   206  PHE206      0.2264
     66  O         27.7820    2.4490   91.7350 O.2   206  PHE206     -0.2867
     67  CB        24.8250    3.1120   92.3860 C.3   206  PHE206      0.0534
     68  CG        24.2330    3.3430   91.0300 C.ar  206  PHE206     -0.0203
     69  CD1       23.0260    2.7420   90.6700 C.ar  206  PHE206     -0.0042
     70  CD2       24.8720    4.1660   90.1090 C.ar  206  PHE206     -0.0042
     71  CE1       22.4600    2.9560   89.4050 C.ar  206  PHE206     -0.0003
     72  CE2       24.3180    4.3820   88.8430 C.ar  206  PHE206     -0.0003
     73  CZ        23.1060    3.7740   88.4940 C.ar  206  PHE206     -0.0000
     74  N         24.8450    4.5230   85.1510 N.3   211  ALA211     -0.1245
     75  CA        24.4650    5.8830   84.7910 C.3   211  ALA211      0.1562
     76  C         24.9090    6.2640   83.3740 C.2   211  ALA211      0.2260
     77  O         24.2660    7.1100   82.7290 O.2   211  ALA211     -0.2867
     78  CB        25.0140    6.8750   85.7970 C.3   211  ALA211      0.0290
     79  N         24.5740    9.7250   81.3110 N.3   214  ALA214     -0.1231
     80  CA        23.6660   10.4980   82.1840 C.3   214  ALA214      0.1697
     81  C         24.3110   10.9530   83.5180 C.2   214  ALA214      0.2631
     82  O         23.9760   12.0270   84.0430 O.2   214  ALA214     -0.2714
     83  CB        22.3590    9.7410   82.4370 C.3   214  ALA214      0.0304
     84  N         25.2310   10.1540   84.0700 N.am  215  GLY215     -0.1732
     85  CA        25.8780   10.5600   85.3180 C.2   215  GLY215      0.1340
     86  C         27.0360    9.7430   85.8660 C.2   215  GLY215      0.2521
     87  O         27.0960    9.4950   87.0840 O.2   215  GLY215     -0.2816
     88  N         22.4760   13.6610   91.8150 N.3   282  GLN282     -0.1231
     89  CA        22.0380   12.7030   92.8230 C.3   282  GLN282      0.1698
     90  C         22.3900   11.2730   92.3980 C.2   282  GLN282      0.2592
     91  O         21.9200   10.7560   91.3800 O.2   282  GLN282     -0.2718
     92  CB        20.5350   12.8410   93.1010 C.3   282  GLN282      0.0381
     93  CG        20.1140   14.2460   93.5520 C.3   282  GLN282      0.0905
     94  CD        18.6040   14.4180   93.6430 C.2   282  GLN282      0.2608
     95  OE1       17.8550   13.4300   93.6750 O.2   282  GLN282     -0.2717
     96  NE2       18.1440   15.6830   93.6900 N.am  282  GLN282     -0.0878
     97  N         23.2580   10.6640   93.1850 N.am  283  ILE283     -0.1966
     98  CA        23.6820    9.2890   93.0240 C.3   283  ILE283      0.1712
     99  C         23.9120    8.8280   94.4750 C.2   283  ILE283      0.2458
    100  O         24.3420    9.6380   95.3060 O.2   283  ILE283     -0.2730
    101  CB        24.9640    9.2080   92.1060 C.3   283  ILE283      0.0289
    102  CG1       25.2540    7.7760   91.6530 C.3   283  ILE283      0.0022
    103  CG2       26.1940    9.8890   92.7470 C.3   283  ILE283      0.0023
    104  CD1       26.0530    7.6970   90.3490 C.3   283  ILE283      0.0001
    105  N         23.6140    7.5500   94.8000 N.am  284  PRO284     -0.2727
    106  CA        23.6380    7.1710   96.2260 C.3   284  PRO284      0.1402
    107  C         24.8440    7.7320   96.9970 C.2   284  PRO284      0.2269
    108  O         25.9900    7.5080   96.5980 O.2   284  PRO284     -0.2865
    109  CB        23.6800    5.6340   96.1780 C.3   284  PRO284      0.0296
    110  CG        22.9780    5.2900   94.9040 C.3   284  PRO284      0.0237
    111  CD        23.2620    6.4060   93.9310 C.3   284  PRO284      0.0939
@<TRIPOS>BOND
     1    58    57    2
     2    57    56    1
     3    79    80    1
     4    56    55    1
     5    56    59    1
     6    21    19   ar
     7    21    22   ar
     8    19    17   ar
     9    80    83    1
    10    80    81    1
    11    12    13    1
    12    22    20   ar
    13    59    60    1
    14    17    16    1
    15    17    18   ar
    16    16    13    1
    17    77    76    2
    18    13    14    1
    19    76    75    1
    20    81    82    2
    21    81    84    1
    22    20    18   ar
    23    60    61    2
    24    60    62   am
    25    84    85    2
    26    39    38    1
    27    14    15    2
    28    14    23   am
    29    75    74    1
    30    75    78    1
    31     9     8    2
    32    85    86    1
    33    23    24    1
    34    38    37    1
    35    86    87    2
    36     8     7    1
    37    27    24    1
    38    27    28    1
    39    24    25    1
    40     7    10    1
    41     7     6    1
    42    11    10    1
    43     4     3    2
    44    37    36    1
    45    36    33    1
    46    28    29    1
    47    25    26    2
    48    32    33    1
    49     3     6   am
    50     3     2    1
    51    33    34    1
    52    31    29   ar
    53    29    30   ar
    54    73    72   ar
    55    73    71   ar
    56    72    70   ar
    57    46    45    1
    58    46    40    1
    59     2     1    1
    60     2     5    1
    61    34    40   am
    62    34    35    2
    63    71    69   ar
    64    45    44    1
    65    40    41    1
    66    70    68   ar
    67   104   102    1
    68    69    68   ar
    69    43    42    2
    70    44    41    1
    71    68    67    1
    72    41    42    1
    73    91    90    2
    74    65    66    2
    75    65    64    1
    76    42    47   am
    77   102   101    1
    78    88    89    1
    79   101   103    1
    80   101    98    1
    81    67    64    1
    82    90    89    1
    83    90    97   am
    84    64    63    1
    85    47    48    1
    86    89    92    1
    87    98    97    1
    88    98    99    1
    89    92    93    1
    90    93    94    1
    91    48    49    1
    92    48    51    1
    93    94    95    2
    94    94    96   am
    95   111   105    1
    96   111   110    1
    97    50    49    2
    98    99   105   am
    99    99   100    2
   100   105   106    1
   101    51    52    1
   102   110   109    1
   103    52    53    1
   104   109   106    1
   105   106   107    1
   106   108   107    2
   107    54    53    1
