@<TRIPOS>MOLECULE
tmp/2efxE00.pdb
 104 98 0 0 0
SMALL
GASTEIGER

@<TRIPOS>ATOM
      1  N        -17.1020  115.8800   95.3830 N.3    57  ALA57      -0.1231
      2  CA       -15.9160  116.2370   94.5840 C.3    57  ALA57       0.1694
      3  C        -15.7640  115.3030   93.3570 C.2    57  ALA57       0.2592
      4  O        -16.7430  115.0530   92.6600 O.2    57  ALA57      -0.2718
      5  CB       -14.6790  116.2350   95.4540 C.3    57  ALA57       0.0304
      6  N        -14.5660  114.7780   93.1120 N.am   58  SER58      -0.1952
      7  CA       -14.3210  113.9750   91.9050 C.3    58  SER58       0.1924
      8  C        -15.1440  112.7140   91.7170 C.2    58  SER58       0.2314
      9  O        -15.0510  112.0920   90.6620 O.2    58  SER58      -0.2863
     10  CB       -12.8440  113.6380   91.7590 C.3    58  SER58       0.2116
     11  OG       -12.1810  114.7470   91.2000 O.3    58  SER58      -0.2180
     12  N         -6.6210  123.0540   85.5610 N.3   111  PHE111     -0.1227
     13  CA        -6.9560  124.2900   86.2450 C.3   111  PHE111      0.1736
     14  C         -6.8950  124.2000   87.7640 C.2   111  PHE111      0.2595
     15  O         -6.7610  125.2220   88.4280 O.2   111  PHE111     -0.2718
     16  CB        -8.3520  124.7600   85.8320 C.3   111  PHE111      0.0547
     17  CG        -9.4710  123.7720   86.1470 C.ar  111  PHE111     -0.0202
     18  CD1      -10.1550  123.8340   87.3560 C.ar  111  PHE111     -0.0042
     19  CD2       -9.8630  122.8080   85.2120 C.ar  111  PHE111     -0.0042
     20  CE1      -11.2070  122.9580   87.6410 C.ar  111  PHE111     -0.0003
     21  CE2      -10.9190  121.9270   85.4850 C.ar  111  PHE111     -0.0003
     22  CZ       -11.5910  122.0030   86.7080 C.ar  111  PHE111     -0.0000
     23  N         -6.9950  122.9830   88.3010 N.am  112  GLU112     -0.1979
     24  CA        -7.2530  122.7730   89.7240 C.3   112  GLU112      0.1602
     25  C         -6.1830  123.4230   90.5810 C.2   112  GLU112      0.2287
     26  O         -6.4900  124.1130   91.5590 O.2   112  GLU112     -0.2864
     27  CB        -7.3750  121.2760   90.0340 C.3   112  GLU112      0.0415
     28  CG        -7.3040  120.9130   91.5120 C.3   112  GLU112      0.1163
     29  CD        -6.5980  119.5880   91.7330 C.2   112  GLU112      0.3649
     30  OE1       -5.5670  119.5830   92.4620 O.co2 112  GLU112     -0.2457
     31  OE2       -7.0540  118.5540   91.1630 O.co2 112  GLU112     -0.2457
     32  N         -6.5320  127.3290   90.6460 N.3   115  MET115     -0.1245
     33  CA        -7.7050  127.9230   91.2840 C.3   115  MET115      0.1570
     34  C         -7.4760  128.1630   92.7780 C.2   115  MET115      0.2261
     35  O         -6.9280  127.3000   93.4770 O.2   115  MET115     -0.2867
     36  CB        -8.9460  127.0700   91.0540 C.3   115  MET115      0.0387
     37  CG        -9.6880  127.4290   89.7950 C.3   115  MET115      0.0595
     38  SD       -11.2340  126.5500   89.6360 S.3   115  MET115     -0.1393
     39  CE       -11.6550  126.9250   87.9280 C.3   115  MET115      0.0692
     40  N         -8.4450  128.5060   96.7620 N.3   117  MET117     -0.1245
     41  CA        -9.2560  127.6290   97.5930 C.3   117  MET117      0.1570
     42  C        -10.4720  128.3360   98.1450 C.2   117  MET117      0.2261
     43  O        -11.4970  127.7040   98.3980 O.2   117  MET117     -0.2867
     44  CB        -8.4340  127.0400   98.7360 C.3   117  MET117      0.0387
     45  CG        -9.0090  125.7220   99.2330 C.3   117  MET117      0.0595
     46  SD        -7.7490  124.5080   99.6600 S.3   117  MET117     -0.1393
     47  CE        -6.7410  124.4850   98.1570 C.3   117  MET117      0.0692
     48  N         -8.8900  117.1050   85.2920 N.3   149  ASN149     -0.1240
     49  CA       -10.1690  117.7420   85.5630 C.3   149  ASN149      0.1653
     50  C        -10.7920  118.4000   84.3210 C.2   149  ASN149      0.2266
     51  O        -12.0100  118.4020   84.1650 O.2   149  ASN149     -0.2867
     52  CB       -10.0300  118.7630   86.7100 C.3   149  ASN149      0.1155
     53  CG        -9.4740  118.1510   87.9830 C.2   149  ASN149      0.2627
     54  OD1      -10.1700  117.4160   88.6980 O.2   149  ASN149     -0.2716
     55  ND2       -8.2050  118.4620   88.2810 N.am  149  ASN149     -0.0877
     56  N        -14.5660  126.9300   98.8290 N.3   216  PHE216     -0.1241
     57  CA       -14.4490  126.7150   97.3750 C.3   216  PHE216      0.1605
     58  C        -15.8080  126.8190   96.6630 C.2   216  PHE216      0.2264
     59  O        -16.8080  126.2880   97.1560 O.2   216  PHE216     -0.2867
     60  CB       -13.7630  125.3560   97.1110 C.3   216  PHE216      0.0534
     61  CG       -13.2790  125.1570   95.6820 C.ar  216  PHE216     -0.0203
     62  CD1      -12.0640  125.6860   95.2600 C.ar  216  PHE216     -0.0042
     63  CD2      -14.0290  124.4090   94.7740 C.ar  216  PHE216     -0.0042
     64  CE1      -11.6170  125.4950   93.9470 C.ar  216  PHE216     -0.0003
     65  CE2      -13.5930  124.2120   93.4690 C.ar  216  PHE216     -0.0003
     66  CZ       -12.3860  124.7530   93.0530 C.ar  216  PHE216     -0.0000
     67  N        -15.4200  123.6860   90.1840 N.3   221  ALA221     -0.1245
     68  CA       -15.1350  122.2890   89.8510 C.3   221  ALA221      0.1562
     69  C        -15.9020  121.8890   88.5900 C.2   221  ALA221      0.2260
     70  O        -15.3660  121.1560   87.7340 O.2   221  ALA221     -0.2867
     71  CB       -15.4790  121.3810   91.0200 C.3   221  ALA221      0.0290
     72  N        -16.0450  118.3230   86.6810 N.3   224  ALA224     -0.1231
     73  CA       -14.9650  117.5950   87.3410 C.3   224  ALA224      0.1697
     74  C        -15.2270  117.3060   88.8250 C.2   224  ALA224      0.2631
     75  O        -14.5540  116.4600   89.4190 O.2   224  ALA224     -0.2714
     76  CB       -13.6440  118.3270   87.1690 C.3   224  ALA224      0.0304
     77  N        -16.1830  117.9990   89.4350 N.am  225  GLY225     -0.1732
     78  CA       -16.4470  117.7630   90.8520 C.2   225  GLY225      0.1340
     79  C        -17.4640  118.6000   91.5980 C.2   225  GLY225      0.2521
     80  O        -17.2880  118.8420   92.7860 O.2   225  GLY225     -0.2816
     81  N        -11.8010  114.7120   96.7990 N.3   292  GLN292     -0.1231
     82  CA       -11.2710  115.7250   97.7190 C.3   292  GLN292      0.1698
     83  C        -11.7630  117.1200   97.3490 C.2   292  GLN292      0.2592
     84  O        -11.5450  117.6100   96.2390 O.2   292  GLN292     -0.2718
     85  CB        -9.7500  115.7010   97.7760 C.3   292  GLN292      0.0381
     86  CG        -9.1560  114.3230   98.0700 C.3   292  GLN292      0.0905
     87  CD        -7.6560  114.2680   97.8650 C.2   292  GLN292      0.2608
     88  OE1       -7.0570  115.1750   97.2860 O.2   292  GLN292     -0.2717
     89  NE2       -7.0410  113.2100   98.3470 N.am  292  GLN292     -0.0878
     90  N        -12.4500  117.7410   98.2960 N.am  293  ILE293     -0.1966
     91  CA       -12.8810  119.1260   98.1930 C.3   293  ILE293      0.1712
     92  C        -12.7800  119.6590   99.6400 C.2   293  ILE293      0.2458
     93  O        -13.0060  118.8910  100.5900 O.2   293  ILE293     -0.2730
     94  CB       -14.2920  119.2280   97.5090 C.3   293  ILE293      0.0289
     95  CG1      -14.5980  120.6550   97.0500 C.3   293  ILE293      0.0022
     96  CG2      -15.3880  118.6780   98.3820 C.3   293  ILE293      0.0023
     97  CD1      -15.7020  120.7560   96.0250 C.3   293  ILE293      0.0001
     98  N        -12.3930  120.9490   99.8230 N.am  294  PRO294     -0.2727
     99  CA       -11.9340  121.3770  101.1550 C.3   294  PRO294      0.1402
    100  C        -12.8520  120.9420  102.2980 C.2   294  PRO294      0.2269
    101  O        -14.0120  121.3540  102.3690 O.2   294  PRO294     -0.2865
    102  CB       -11.8880  122.9080  101.0440 C.3   294  PRO294      0.0296
    103  CG       -11.6390  123.1510   99.5980 C.3   294  PRO294      0.0237
    104  CD       -12.3880  122.0690   98.8610 C.3   294  PRO294      0.0939
@<TRIPOS>BOND
     1    51    50    2
     2    50    49    1
     3    19    21   ar
     4    19    17   ar
     5    48    49    1
     6    21    22   ar
     7    12    13    1
     8    49    52    1
     9    16    17    1
    10    16    13    1
    11    17    18   ar
    12    13    14    1
    13    72    73    1
    14    22    20   ar
    15    52    53    1
    16    76    73    1
    17    73    74    1
    18    18    20   ar
    19    70    69    2
    20    14    23   am
    21    14    15    2
    22    39    38    1
    23    53    55   am
    24    53    54    2
    25    23    24    1
    26    69    68    1
    27    74    75    2
    28    74    77    1
    29    77    78    2
    30    38    37    1
    31    24    27    1
    32    24    25    1
    33    37    36    1
    34    68    67    1
    35    68    71    1
    36    27    28    1
    37    25    26    2
    38    32    33    1
    39     9     8    2
    40    78    79    1
    41    36    33    1
    42    31    29   ar
    43    11    10    1
    44    33    34    1
    45    28    29    1
    46    79    80    2
    47     8     7    1
    48    29    30   ar
    49    10     7    1
    50     7     6    1
    51     4     3    2
    52    34    35    2
    53    66    65   ar
    54    66    64   ar
    55     6     3   am
    56     3     2    1
    57    65    63   ar
    58    64    62   ar
    59     2     1    1
    60     2     5    1
    61    63    61   ar
    62    62    61   ar
    63    61    60    1
    64    97    95    1
    65    84    83    2
    66    58    59    2
    67    58    57    1
    68    40    41    1
    69    81    82    1
    70    95    94    1
    71    60    57    1
    72    88    87    2
    73    83    82    1
    74    83    90   am
    75    57    56    1
    76    94    91    1
    77    94    96    1
    78    41    42    1
    79    41    44    1
    80    82    85    1
    81    85    86    1
    82    87    86    1
    83    87    89   am
    84    42    43    2
    85    47    46    1
    86    91    90    1
    87    91    92    1
    88    44    45    1
    89   104   103    1
    90   104    98    1
    91    45    46    1
    92   103   102    1
    93    92    98   am
    94    92    93    2
    95    98    99    1
    96   102    99    1
    97    99   100    1
    98   100   101    2
