@<TRIPOS>MOLECULE
tmp/2efxF00.pdb
 116 109 0 0 0
SMALL
GASTEIGER

@<TRIPOS>ATOM
      1  N         29.2720   14.1190   87.8050 N.3    30  ALA30      -0.1231
      2  CA        27.9350   13.5910   87.5220 C.3    30  ALA30       0.1694
      3  C         27.3080   14.2750   86.2990 C.2    30  ALA30       0.2592
      4  O         27.9470   14.3840   85.2460 O.2    30  ALA30      -0.2718
      5  CB        27.0330   13.6900   88.7640 C.3    30  ALA30       0.0304
      6  N         26.0740   14.7540   86.4400 N.am   31  SER31      -0.1952
      7  CA        25.3670   15.3690   85.3160 C.3    31  SER31       0.1924
      8  C         26.0820   16.5410   84.6520 C.2    31  SER31       0.2314
      9  O         25.9520   16.7230   83.4550 O.2    31  SER31      -0.2863
     10  CB        23.9530   15.7420   85.7060 C.3    31  SER31       0.2116
     11  OG        23.1300   14.6150   85.5270 O.3    31  SER31      -0.2180
     12  N         16.5140    6.1060   82.7570 N.3    84  PHE84      -0.1227
     13  CA        17.1740    5.0070   83.4850 C.3    84  PHE84       0.1736
     14  C         17.6550    5.3220   84.9250 C.2    84  PHE84       0.2595
     15  O         17.9060    4.3900   85.7060 O.2    84  PHE84      -0.2718
     16  CB        18.3080    4.3890   82.6470 C.3    84  PHE84       0.0547
     17  CG        19.4570    5.3310   82.3680 C.ar   84  PHE84      -0.0202
     18  CD1       20.5450    5.4060   83.2410 C.ar   84  PHE84      -0.0042
     19  CD2       19.4520    6.1370   81.2250 C.ar   84  PHE84      -0.0042
     20  CE1       21.6090    6.2760   82.9850 C.ar   84  PHE84      -0.0003
     21  CE2       20.5020    7.0060   80.9510 C.ar   84  PHE84      -0.0003
     22  CZ        21.5930    7.0790   81.8360 C.ar   84  PHE84      -0.0000
     23  N         17.7730    6.6110   85.2690 N.am   85  GLU85      -0.1979
     24  CA        18.4360    7.0510   86.5240 C.3    85  GLU85       0.1602
     25  C         17.7210    6.4890   87.7550 C.2    85  GLU85       0.2287
     26  O         18.3570    6.0050   88.6860 O.2    85  GLU85      -0.2864
     27  CB        18.5460    8.5880   86.5670 C.3    85  GLU85       0.0415
     28  CG        19.1810    9.2290   87.8240 C.3    85  GLU85       0.1163
     29  CD        19.3290   10.7670   87.6960 C.2    85  GLU85       0.3649
     30  OE1       18.4130   11.4280   87.1350 O.co2  85  GLU85      -0.2457
     31  OE2       20.3650   11.3200   88.1540 O.co2  85  GLU85      -0.2457
     32  N         18.3130    2.2930   87.8710 N.3    88  MET88      -0.1245
     33  CA        19.7090    1.8650   87.8820 C.3    88  MET88       0.1570
     34  C         20.2240    1.7650   89.3030 C.2    88  MET88       0.2261
     35  O         20.2730    2.7630   90.0170 O.2    88  MET88      -0.2867
     36  CB        20.6080    2.7750   87.0330 C.3    88  MET88       0.0387
     37  CG        20.9660    2.1950   85.6610 C.3    88  MET88       0.0595
     38  SD        22.7070    2.4930   85.2070 S.3    88  MET88      -0.1393
     39  CE        22.6440    2.3910   83.4250 C.3    88  MET88       0.0692
     40  N         22.1300    1.6330   92.8100 N.3    90  MET90      -0.1245
     41  CA        23.1140    2.5940   93.2870 C.3    90  MET90       0.1570
     42  C         24.4900    1.9660   93.5240 C.2    90  MET90       0.2261
     43  O         25.5030    2.4840   93.0590 O.2    90  MET90      -0.2867
     44  CB        22.6230    3.3150   94.5380 C.3    90  MET90       0.0387
     45  CG        23.2020    4.7140   94.6530 C.3    90  MET90       0.0595
     46  SD        22.5430    5.6310   96.0430 S.3    90  MET90      -0.1393
     47  CE        20.9580    6.1720   95.3840 C.3    90  MET90       0.0692
     48  N         18.0560   11.5980   80.8170 N.3   122  ASN122     -0.1240
     49  CA        19.4360   11.1140   80.6950 C.3   122  ASN122      0.1653
     50  C         19.5620   10.2750   79.4320 C.2   122  ASN122      0.2266
     51  O         20.5850   10.3220   78.7550 O.2   122  ASN122     -0.2867
     52  CB        19.8420   10.3110   81.9340 C.3   122  ASN122      0.1155
     53  CG        19.7130   11.1110   83.2150 C.2   122  ASN122      0.2627
     54  OD1       20.4970   12.0360   83.4840 O.2   122  ASN122     -0.2716
     55  ND2       18.7280   10.7600   84.0180 N.am  122  ASN122     -0.0877
     56  N         27.5830    9.6980  101.7410 N.3   164  MET164     -0.1245
     57  CA        26.1690    9.3410  101.8710 C.3   164  MET164      0.1570
     58  C         25.7320    9.3060  103.3410 C.2   164  MET164      0.2261
     59  O         26.3000    8.5660  104.1470 O.2   164  MET164     -0.2867
     60  CB        25.8770    8.0040  101.1720 C.3   164  MET164      0.0387
     61  CG        26.2290    7.9600   99.6650 C.3   164  MET164      0.0595
     62  SD        25.1100    8.8290   98.5160 S.3   164  MET164     -0.1393
     63  CE        23.5650    7.9790   98.8190 C.3   164  MET164      0.0692
     64  N         28.9220    3.3850   92.7170 N.3   172  PHE172     -0.1241
     65  CA        28.3090    3.4950   91.3860 C.3   172  PHE172      0.1605
     66  C         29.3090    3.3650   90.2270 C.2   172  PHE172      0.2264
     67  O         30.3680    4.0050   90.2540 O.2   172  PHE172     -0.2867
     68  CB        27.5050    4.8010   91.2660 C.3   172  PHE172      0.0534
     69  CG        26.5180    4.8040   90.1270 C.ar  172  PHE172     -0.0203
     70  CD1       25.2410    4.2620   90.2910 C.ar  172  PHE172     -0.0042
     71  CD2       26.8640    5.3440   88.8870 C.ar  172  PHE172     -0.0042
     72  CE1       24.3220    4.2530   89.2380 C.ar  172  PHE172     -0.0003
     73  CE2       25.9480    5.3430   87.8250 C.ar  172  PHE172     -0.0003
     74  CZ        24.6730    4.7910   88.0080 C.ar  172  PHE172     -0.0000
     75  N         27.7390    3.2250   84.0500 N.3   176  GLY176     -0.1210
     76  CA        26.3110    3.3320   84.3560 C.3   176  GLY176      0.1956
     77  C         25.7370    4.7220   84.1000 C.2   176  GLY176      0.2611
     78  O         24.5240    4.9250   84.1880 O.2   176  GLY176     -0.2717
     79  N         26.6150    5.6730   83.7840 N.am  177  ALA177     -0.1979
     80  CA        26.2260    7.0480   83.4680 C.3   177  ALA177      0.1597
     81  C         26.4300    7.3900   81.9920 C.2   177  ALA177      0.2287
     82  O         25.6390    8.1370   81.4270 O.2   177  ALA177     -0.2864
     83  CB        26.9750    8.0490   84.3630 C.3   177  ALA177      0.0319
     84  N         25.5490   10.8840   80.0060 N.3   180  ALA180     -0.1231
     85  CA        24.7280   11.5960   80.9890 C.3   180  ALA180      0.1697
     86  C         25.4850   12.0950   82.2350 C.2   180  ALA180      0.2631
     87  O         24.9700   12.9610   82.9560 O.2   180  ALA180     -0.2714
     88  CB        23.5360   10.7320   81.4130 C.3   180  ALA180      0.0304
     89  N         26.6780   11.5530   82.5080 N.am  181  GLY181     -0.1732
     90  CA        27.4150   11.9210   83.7350 C.2   181  GLY181      0.1340
     91  C         28.6390   11.1210   84.1820 C.2   181  GLY181      0.2521
     92  O         28.9070   11.0040   85.3830 O.2   181  GLY181     -0.2816
     93  N         24.5900   14.9880   90.6530 N.3   247  GLN247     -0.1231
     94  CA        24.3160   14.0050   91.7000 C.3   247  GLN247      0.1698
     95  C         24.8540   12.6210   91.3240 C.2   247  GLN247      0.2592
     96  O         24.4430   12.0200   90.3240 O.2   247  GLN247     -0.2718
     97  CB        22.8240   13.9660   92.0310 C.3   247  GLN247      0.0381
     98  CG        22.4120   15.0970   92.9570 C.3   247  GLN247      0.0905
     99  CD        20.9280   15.4450   92.8970 C.2   247  GLN247      0.2608
    100  OE1       20.1390   14.7960   92.2060 O.2   247  GLN247     -0.2717
    101  NE2       20.5460   16.4880   93.6250 N.am  247  GLN247     -0.0878
    102  N         25.8030   12.1470   92.1270 N.am  248  ILE248     -0.1966
    103  CA        26.3970   10.8180   91.9920 C.3   248  ILE248      0.1712
    104  C         26.9400   10.4490   93.3840 C.2   248  ILE248      0.2458
    105  O         27.5230   11.3100   94.0640 O.2   248  ILE248     -0.2730
    106  CB        27.4970   10.7800   90.8710 C.3   248  ILE248      0.0289
    107  CG1       27.6630    9.3600   90.3000 C.3   248  ILE248      0.0022
    108  CG2       28.8260   11.4280   91.3440 C.3   248  ILE248      0.0023
    109  CD1       28.2020    9.3070   88.8630 C.3   248  ILE248      0.0001
    110  N         26.7400    9.1850   93.8240 N.am  249  PRO249     -0.2727
    111  CA        26.9900    8.8180   95.2310 C.3   249  PRO249      0.1402
    112  C         28.3580    9.2630   95.7830 C.2   249  PRO249      0.2269
    113  O         29.3880    8.6480   95.4830 O.2   249  PRO249     -0.2865
    114  CB        26.8810    7.2900   95.2140 C.3   249  PRO249      0.0296
    115  CG        25.9680    6.9990   94.0770 C.3   249  PRO249      0.0237
    116  CD        26.2920    8.0230   93.0320 C.3   249  PRO249      0.0939
@<TRIPOS>BOND
     1    51    50    2
     2    50    49    1
     3    84    85    1
     4    49    48    1
     5    49    52    1
     6    21    19   ar
     7    21    22   ar
     8    85    88    1
     9    85    86    1
    10    19    17   ar
    11    82    81    2
    12    22    20   ar
    13    52    53    1
    14    81    80    1
    15    86    89    1
    16    86    87    2
    17    17    16    1
    18    17    18   ar
    19    89    90    2
    20    16    13    1
    21    12    13    1
    22    20    18   ar
    23    53    54    2
    24    53    55   am
    25    39    38    1
    26     9     8    2
    27    80    79    1
    28    80    83    1
    29    13    14    1
    30    90    91    1
    31    79    77   am
    32    75    76    1
    33    77    78    2
    34    77    76    1
    35    91    92    2
    36     8     7    1
    37    14    23   am
    38    14    15    2
    39    38    37    1
    40     4     3    2
    41    23    24    1
    42     7    10    1
    43     7     6    1
    44    11    10    1
    45    37    36    1
    46     3     6   am
    47     3     2    1
    48    24    27    1
    49    24    25    1
    50    27    28    1
    51    36    33    1
    52    30    29   ar
    53     2     1    1
    54     2     5    1
    55    29    28    1
    56    29    31   ar
    57    25    26    2
    58    73    74   ar
    59    73    71   ar
    60    32    33    1
    61    33    34    1
    62    74    72   ar
    63   109   107    1
    64    71    69   ar
    65    72    70   ar
    66    34    35    2
    67    69    70   ar
    68    69    68    1
    69    66    67    2
    70    66    65    1
    71   107   106    1
    72    96    95    2
    73    93    94    1
    74   106   108    1
    75   106   103    1
    76    68    65    1
    77    95    94    1
    78    95   102   am
    79    65    64    1
    80    94    97    1
    81   103   102    1
    82   103   104    1
    83    97    98    1
    84   100    99    2
    85    40    41    1
    86    99    98    1
    87    99   101   am
    88   116   110    1
    89   116   115    1
    90    43    42    2
    91    41    42    1
    92    41    44    1
    93   104   110   am
    94   104   105    2
    95   110   111    1
    96   115   114    1
    97    44    45    1
    98    45    46    1
    99   114   111    1
   100   111   112    1
   101    47    46    1
   102   113   112    2
   103    62    63    1
   104    62    61    1
   105    61    60    1
   106    60    57    1
   107    56    57    1
   108    57    58    1
   109    58    59    2
