@<TRIPOS>MOLECULE
tmp/2efyA01.pdb
 91 87 0 0 0
SMALL
GASTEIGER

@<TRIPOS>ATOM
      1  N         16.6760   46.2300   -8.7320 N.3    40  LYS40      -0.1245
      2  CA        16.9810   46.1510  -10.1580 C.3    40  LYS40       0.1561
      3  C         16.4930   44.8780  -10.8560 C.2    40  LYS40       0.2260
      4  O         16.4360   44.8340  -12.0860 O.2    40  LYS40      -0.2867
      5  CB        18.4800   46.3360  -10.4010 C.3    40  LYS40       0.0271
      6  CG        18.9860   47.7510  -10.1550 C.3    40  LYS40       0.0035
      7  CD        18.1990   48.7840  -10.9570 C.3    40  LYS40       0.0206
      8  CE        18.9600   50.1060  -11.0610 C.3    40  LYS40       0.1093
      9  NZ        19.4530   50.5290   -9.7290 N.3    40  LYS40      -0.1314
     10  N         27.3030   49.2690  -16.6970 N.3    69  THR69      -0.1203
     11  CA        26.8020   49.4230  -15.3290 C.3    69  THR69       0.1994
     12  C         27.7230   48.8650  -14.2530 C.2    69  THR69       0.2619
     13  O         28.2260   47.7470  -14.3670 O.2    69  THR69      -0.2717
     14  CB        25.4350   48.7530  -15.1370 C.3    69  THR69       0.1784
     15  OG1       25.1040   48.7780  -13.7440 O.3    69  THR69      -0.2211
     16  CG2       25.4670   47.3000  -15.6200 C.3    69  THR69       0.0376
     17  N         27.9150   49.6520  -13.1980 N.am   70  SER70      -0.1937
     18  CA        28.7710   49.2640  -12.0800 C.3    70  SER70       0.2055
     19  C         27.9600   49.0510  -10.7950 C.2    70  SER70       0.2644
     20  O         28.5090   49.1290   -9.6890 O.2    70  SER70      -0.2714
     21  CB        29.8300   50.3470  -11.8440 C.3    70  SER70       0.2130
     22  OG        29.2170   51.5970  -11.5490 O.3    70  SER70      -0.2179
     23  N         26.6610   48.7800  -10.9450 N.am   71  GLY71      -0.1939
     24  CA        25.8130   48.5720   -9.7820 C.3    71  GLY71       0.2014
     25  C         24.8700   47.3800   -9.8430 C.2    71  GLY71       0.2639
     26  O         25.1610   46.3700  -10.4830 O.2    71  GLY71      -0.2714
     27  N         23.7290   47.5050   -9.1690 N.am   72  ASN72      -0.1958
     28  CA        22.7300   46.4410   -9.1280 C.3    72  ASN72       0.1819
     29  C         22.1690   46.0300  -10.4860 C.2    72  ASN72       0.2621
     30  O         21.7670   44.8810  -10.6600 O.2    72  ASN72      -0.2715
     31  CB        21.5730   46.8320   -8.2030 C.3    72  ASN72       0.1195
     32  CG        21.9880   46.8910   -6.7500 C.2    72  ASN72       0.2630
     33  OD1       22.5370   45.9270   -6.2200 O.2    72  ASN72      -0.2716
     34  ND2       21.7330   48.0240   -6.0970 N.am   72  ASN72      -0.0877
     35  N         22.1330   46.9480  -11.4500 N.am   73  THR73      -0.1951
     36  CA        21.6070   46.5850  -12.7620 C.3    73  THR73       0.1897
     37  C         22.4360   45.4580  -13.3870 C.2    73  THR73       0.2313
     38  O         21.8830   44.5200  -13.9610 O.2    73  THR73      -0.2863
     39  CB        21.5620   47.7910  -13.7260 C.3    73  THR73       0.1794
     40  OG1       20.6700   48.7800  -13.2050 O.3    73  THR73      -0.2208
     41  CG2       21.0460   47.3560  -15.0960 C.3    73  THR73       0.0378
     42  N         19.3690   51.4460  -19.5100 N.3   141  GLN141     -0.1231
     43  CA        18.5560   51.6690  -18.3170 C.3   141  GLN141      0.1698
     44  C         18.0410   53.0720  -18.0170 C.2   141  GLN141      0.2592
     45  O         17.0280   53.2080  -17.3310 O.2   141  GLN141     -0.2718
     46  CB        19.3070   51.1520  -17.0830 C.3   141  GLN141      0.0381
     47  CG        20.4780   52.0280  -16.6480 C.3   141  GLN141      0.0905
     48  CD        21.2090   51.4640  -15.4450 C.2   141  GLN141      0.2608
     49  OE1       20.5890   51.0820  -14.4550 O.2   141  GLN141     -0.2717
     50  NE2       22.5340   51.4160  -15.5220 N.am  141  GLN141     -0.0878
     51  N         18.7280   54.1070  -18.4980 N.am  142  PHE142     -0.1976
     52  CA        18.2890   55.4750  -18.2310 C.3   142  PHE142      0.1639
     53  C         17.2470   56.0170  -19.2170 C.2   142  PHE142      0.2290
     54  O         16.5440   56.9870  -18.9000 O.2   142  PHE142     -0.2864
     55  CB        19.4840   56.4410  -18.2030 C.3   142  PHE142      0.0560
     56  CG        20.4450   56.2040  -17.0650 C.ar  142  PHE142     -0.0200
     57  CD1       21.5550   55.3790  -17.2320 C.ar  142  PHE142     -0.0042
     58  CD2       20.2500   56.8270  -15.8310 C.ar  142  PHE142     -0.0042
     59  CE1       22.4670   55.1770  -16.1850 C.ar  142  PHE142     -0.0003
     60  CE2       21.1510   56.6350  -14.7780 C.ar  142  PHE142     -0.0003
     61  CZ        22.2660   55.8080  -14.9540 C.ar  142  PHE142     -0.0000
     62  N         17.4520   57.2490   -9.2530 N.3   175  GLY175     -0.1210
     63  CA        18.6810   56.8620   -9.9230 C.3   175  GLY175      0.1956
     64  C         18.4170   56.9160  -11.4210 C.2   175  GLY175      0.2612
     65  O         18.6530   57.9440  -12.0640 O.2   175  GLY175     -0.2717
     66  N         17.9250   55.8190  -11.9890 N.am  176  THR176     -0.1952
     67  CA        17.6030   55.8220  -13.4120 C.3   176  THR176      0.1897
     68  C         16.3120   56.6160  -13.5900 C.2   176  THR176      0.2313
     69  O         16.0030   57.0580  -14.6870 O.2   176  THR176     -0.2863
     70  CB        17.3650   54.4020  -13.9790 C.3   176  THR176      0.1794
     71  OG1       16.2250   53.8150  -13.3410 O.3   176  THR176     -0.2208
     72  CG2       18.5930   53.5200  -13.7720 C.3   176  THR176      0.0378
     73  N         24.0340   53.9370   -6.1790 N.3   219  GLY219     -0.1210
     74  CA        22.7760   53.5320   -6.7670 C.3   219  GLY219      0.1956
     75  C         21.8840   54.6870   -7.1650 C.2   219  GLY219      0.2611
     76  O         21.0810   54.5480   -8.0760 O.2   219  GLY219     -0.2717
     77  N         22.0160   55.8230   -6.4910 N.am  220  MET220     -0.1979
     78  CA        21.1840   56.9820   -6.8080 C.3   220  MET220      0.1605
     79  C         22.0190   58.2450   -7.0760 C.2   220  MET220      0.2287
     80  O         23.2400   58.2460   -6.8950 O.2   220  MET220     -0.2864
     81  CB        20.2030   57.2440   -5.6590 C.3   220  MET220      0.0413
     82  CG        20.8950   57.5150   -4.3270 C.3   220  MET220      0.0598
     83  SD        19.8030   58.0170   -2.9830 S.3   220  MET220     -0.1393
     84  CE        19.6010   59.7600   -3.3270 C.3   220  MET220      0.0692
     85  N         22.6150   60.1140  -10.1220 N.3   222  PRO222     -0.2116
     86  CA        23.4340   59.9080  -11.3220 C.3   222  PRO222      0.1372
     87  C         24.2330   61.1350  -11.7540 C.2   222  PRO222      0.2244
     88  O         25.2170   61.0190  -12.4890 O.2   222  PRO222     -0.2868
     89  CB        22.4010   59.4990  -12.3710 C.3   222  PRO222      0.0268
     90  CG        21.2250   60.3430  -11.9950 C.3   222  PRO222      0.0207
     91  CD        21.1830   60.1830  -10.4810 C.3   222  PRO222      0.0892
@<TRIPOS>BOND
     1    42    43    1
     2    53    54    2
     3    53    52    1
     4    51    52    1
     5    51    44   am
     6    43    44    1
     7    43    46    1
     8    52    55    1
     9    55    56    1
    10    44    45    2
    11    57    56   ar
    12    57    59   ar
    13    46    47    1
    14    56    58   ar
    15    10    11    1
    16    47    48    1
    17    59    61   ar
    18    58    60   ar
    19    16    14    1
    20    50    48   am
    21    48    49    2
    22    11    14    1
    23    11    12    1
    24    14    15    1
    25    41    39    1
    26    61    60   ar
    27    69    68    2
    28    13    12    2
    29    12    17   am
    30    70    72    1
    31    70    67    1
    32    70    71    1
    33    38    37    2
    34    39    40    1
    35    39    36    1
    36    68    67    1
    37    67    66    1
    38    37    36    1
    39    17    18    1
    40    36    35    1
    41    88    87    2
    42    89    90    1
    43    89    86    1
    44     4     3    2
    45    18    21    1
    46    18    19    1
    47    65    64    2
    48    90    91    1
    49    66    64   am
    50    21    22    1
    51    87    86    1
    52    35    29   am
    53    64    63    1
    54    86    85    1
    55     8     7    1
    56     8     9    1
    57     7     6    1
    58    23    19   am
    59    23    24    1
    60     3     2    1
    61    19    20    2
    62    30    29    2
    63    29    28    1
    64    26    25    2
    65    91    85    1
    66     5     2    1
    67     5     6    1
    68     2     1    1
    69    63    62    1
    70    25    24    1
    71    25    27   am
    72    27    28    1
    73    28    31    1
    74    31    32    1
    75    76    75    2
    76    75    74    1
    77    75    77   am
    78    79    80    2
    79    79    78    1
    80    78    77    1
    81    78    81    1
    82    74    73    1
    83    32    33    2
    84    32    34   am
    85    81    82    1
    86    82    83    1
    87    84    83    1
