@<TRIPOS>MOLECULE
tmp/2efyA00.pdb
 160 155 0 0 0
SMALL
GASTEIGER

@<TRIPOS>ATOM
      1  N         16.3090   45.9660   -6.0450 N.3    39  ILE39      -0.1231
      2  CA        15.1640   46.4220   -6.8060 C.3    39  ILE39       0.1692
      3  C         15.4130   46.3190   -8.3250 C.2    39  ILE39       0.2591
      4  O         14.4680   46.3130   -9.1180 O.2    39  ILE39      -0.2718
      5  CB        14.8670   47.8770   -6.4450 C.3    39  ILE39       0.0266
      6  CG1       13.5540   48.3280   -7.0860 C.3    39  ILE39       0.0019
      7  CG2       16.0290   48.7610   -6.9020 C.3    39  ILE39       0.0020
      8  CD1       13.1200   49.7000   -6.6510 C.3    39  ILE39       0.0001
      9  N         16.6760   46.2300   -8.7320 N.am   40  LYS40      -0.1980
     10  CA        16.9810   46.1510  -10.1580 C.3    40  LYS40       0.1596
     11  C         16.4930   44.8780  -10.8560 C.2    40  LYS40       0.2287
     12  O         16.4360   44.8340  -12.0860 O.2    40  LYS40      -0.2864
     13  CB        18.4800   46.3360  -10.4010 C.3    40  LYS40       0.0298
     14  CG        18.9860   47.7510  -10.1550 C.3    40  LYS40       0.0038
     15  CD        18.1990   48.7840  -10.9570 C.3    40  LYS40       0.0206
     16  CE        18.9600   50.1060  -11.0610 C.3    40  LYS40       0.1093
     17  NZ        19.4530   50.5290   -9.7290 N.3    40  LYS40      -0.1314
     18  N         13.4950   45.9770  -13.1810 N.3    43  PRO43      -0.2116
     19  CA        13.8720   46.6250  -14.4450 C.3    43  PRO43       0.1372
     20  C         14.6330   45.6660  -15.3650 C.2    43  PRO43       0.2244
     21  O         14.3690   45.5960  -16.5700 O.2    43  PRO43      -0.2868
     22  CB        14.7750   47.7740  -13.9970 C.3    43  PRO43       0.0268
     23  CG        14.3250   48.0490  -12.5990 C.3    43  PRO43       0.0207
     24  CD        14.0800   46.6890  -12.0320 C.3    43  PRO43       0.0892
     25  N         23.7290   47.5050   -9.1690 N.3    72  ASN72      -0.1240
     26  CA        22.7300   46.4410   -9.1280 C.3    72  ASN72       0.1653
     27  C         22.1690   46.0300  -10.4860 C.2    72  ASN72       0.2266
     28  O         21.7670   44.8810  -10.6600 O.2    72  ASN72      -0.2867
     29  CB        21.5730   46.8320   -8.2030 C.3    72  ASN72       0.1155
     30  CG        21.9880   46.8910   -6.7500 C.2    72  ASN72       0.2627
     31  OD1       22.5370   45.9270   -6.2200 O.2    72  ASN72      -0.2716
     32  ND2       21.7330   48.0240   -6.0970 N.am   72  ASN72      -0.0877
     33  N         11.8640   50.2060  -18.1420 N.3   147  ASN147     -0.1240
     34  CA        12.3910   50.3410  -16.7860 C.3   147  ASN147      0.1653
     35  C         11.2230   50.8520  -15.9530 C.2   147  ASN147      0.2266
     36  O         10.8360   50.2440  -14.9530 O.2   147  ASN147     -0.2867
     37  CB        13.5250   51.3720  -16.7770 C.3   147  ASN147      0.1155
     38  CG        14.1430   51.5700  -15.4020 C.2   147  ASN147      0.2627
     39  OD1       13.4630   51.4830  -14.3730 O.2   147  ASN147     -0.2716
     40  ND2       15.4380   51.8680  -15.3810 N.am  147  ASN147     -0.0877
     41  N          7.9740   49.1650  -12.7310 N.3   151  HIS151     -0.1241
     42  CA         7.4970   49.7020  -11.4620 C.3   151  HIS151      0.1621
     43  C          6.0460   50.1490  -11.5610 C.2   151  HIS151      0.2264
     44  O          5.3280   50.2230  -10.5580 O.2   151  HIS151     -0.2867
     45  CB         8.3920   50.8680  -11.0390 C.3   151  HIS151      0.0745
     46  CG         9.8380   50.4950  -10.9480 C.ar  151  HIS151      0.0817
     47  ND1       10.3200   49.6200   -9.9970 N.ar  151  HIS151     -0.2268
     48  CD2       10.8970   50.8290  -11.7240 C.ar  151  HIS151      0.1154
     49  CE1       11.6130   49.4300  -10.1940 C.ar  151  HIS151      0.1986
     50  NE2       11.9880   50.1510  -11.2360 N.ar  151  HIS151     -0.2212
     51  N         11.3980   58.6770   -2.6280 N.3   172  TYR172     -0.1227
     52  CA        12.3850   57.8010   -3.2420 C.3   172  TYR172      0.1736
     53  C         13.6300   58.5170   -3.7460 C.2   172  TYR172      0.2596
     54  O         13.5460   59.6280   -4.2700 O.2   172  TYR172     -0.2718
     55  CB        11.7490   57.0270   -4.3990 C.3   172  TYR172      0.0548
     56  CG        12.6210   55.8990   -4.9090 C.ar  172  TYR172     -0.0200
     57  CD1       12.7750   54.7320   -4.1710 C.ar  172  TYR172     -0.0009
     58  CD2       13.3330   56.0210   -6.1090 C.ar  172  TYR172     -0.0009
     59  CE1       13.6110   53.7210   -4.6000 C.ar  172  TYR172      0.0417
     60  CE2       14.1770   55.0080   -6.5510 C.ar  172  TYR172      0.0417
     61  CZ        14.3100   53.8630   -5.7890 C.ar  172  TYR172      0.1957
     62  OH        15.1320   52.8480   -6.2040 O.3   172  TYR172     -0.2866
     63  N         14.7850   57.8690   -3.5690 N.am  173  GLY173     -0.1942
     64  CA        16.0520   58.4210   -4.0310 C.3   173  GLY173      0.2014
     65  C         16.2470   57.9800   -5.4740 C.2   173  GLY173      0.2640
     66  O         16.6770   56.8580   -5.7430 O.2   173  GLY173     -0.2714
     67  N         15.9320   58.8710   -6.4070 N.am  174  SER174     -0.1935
     68  CA        16.0210   58.5670   -7.8270 C.3   174  SER174      0.2055
     69  C         17.4000   58.2770   -8.4110 C.2   174  SER174      0.2644
     70  O         18.3770   58.9570   -8.1140 O.2   174  SER174     -0.2714
     71  CB        15.3610   59.6870   -8.6280 C.3   174  SER174      0.2130
     72  OG        15.2130   59.3100   -9.9860 O.3   174  SER174     -0.2179
     73  N         17.4520   57.2490   -9.2530 N.am  175  GLY175     -0.1939
     74  CA        18.6810   56.8620   -9.9230 C.3   175  GLY175      0.2014
     75  C         18.4170   56.9160  -11.4210 C.2   175  GLY175      0.2640
     76  O         18.6530   57.9440  -12.0640 O.2   175  GLY175     -0.2714
     77  N         17.9250   55.8190  -11.9890 N.am  176  THR176     -0.1936
     78  CA        17.6030   55.8220  -13.4120 C.3   176  THR176      0.2028
     79  C         16.3120   56.6160  -13.5900 C.2   176  THR176      0.2643
     80  O         16.0030   57.0580  -14.6870 O.2   176  THR176     -0.2714
     81  CB        17.3650   54.4020  -13.9790 C.3   176  THR176      0.1808
     82  OG1       16.2250   53.8150  -13.3410 O.3   176  THR176     -0.2208
     83  CG2       18.5930   53.5200  -13.7720 C.3   176  THR176      0.0379
     84  N         15.5680   56.7960  -12.5000 N.am  177  GLY177     -0.1939
     85  CA        14.3120   57.5300  -12.5580 C.3   177  GLY177      0.2014
     86  C         13.1180   56.6090  -12.7550 C.2   177  GLY177      0.2639
     87  O         11.9620   57.0250  -12.6550 O.2   177  GLY177     -0.2714
     88  N         13.4010   55.3380  -13.0230 N.am  178  GLY178     -0.1939
     89  CA        12.3430   54.3720  -13.2560 C.3   178  GLY178      0.2014
     90  C         11.3880   54.0870  -12.1100 C.2   178  GLY178      0.2640
     91  O         10.1770   54.0220  -12.3110 O.2   178  GLY178     -0.2714
     92  N         11.9200   53.9090  -10.9080 N.am  179  THR179     -0.1936
     93  CA        11.0780   53.6120   -9.7560 C.3   179  THR179      0.2028
     94  C         10.1210   54.7460   -9.3970 C.2   179  THR179      0.2642
     95  O          8.9130   54.5330   -9.2510 O.2   179  THR179     -0.2714
     96  CB        11.9260   53.2950   -8.5070 C.3   179  THR179      0.1808
     97  OG1       12.7480   52.1520   -8.7660 O.3   179  THR179     -0.2208
     98  CG2       11.0170   53.0090   -7.2990 C.3   179  THR179      0.0379
     99  N         10.6630   55.9500   -9.2550 N.am  180  ILE180     -0.1977
    100  CA         9.8390   57.0800   -8.8770 C.3   180  ILE180      0.1596
    101  C          8.8100   57.4150   -9.9560 C.2   180  ILE180      0.2287
    102  O          7.6820   57.7970   -9.6390 O.2   180  ILE180     -0.2864
    103  CB        10.7120   58.3190   -8.5190 C.3   180  ILE180      0.0276
    104  CG1        9.9200   59.2440   -7.5900 C.3   180  ILE180      0.0022
    105  CG2       11.1530   59.0520   -9.7820 C.3   180  ILE180      0.0022
    106  CD1       10.7770   60.2860   -6.8790 C.3   180  ILE180      0.0001
    107  N         25.5520   55.0970   -3.1990 N.3   218  GLN218     -0.1231
    108  CA        25.6130   54.2360   -4.3770 C.3   218  GLN218      0.1698
    109  C         24.2480   53.7850   -4.8780 C.2   218  GLN218      0.2593
    110  O         23.4090   53.3160   -4.1090 O.2   218  GLN218     -0.2718
    111  CB        26.4850   53.0110   -4.0980 C.3   218  GLN218      0.0381
    112  CG        27.8670   53.3630   -3.5610 C.3   218  GLN218      0.0905
    113  CD        28.7380   52.1420   -3.3140 C.2   218  GLN218      0.2608
    114  OE1       29.6560   52.1810   -2.4920 O.2   218  GLN218     -0.2717
    115  NE2       28.4630   51.0580   -4.0300 N.am  218  GLN218     -0.0878
    116  N         24.0340   53.9370   -6.1790 N.am  219  GLY219     -0.1942
    117  CA        22.7760   53.5320   -6.7670 C.3   219  GLY219      0.2014
    118  C         21.8840   54.6870   -7.1650 C.2   219  GLY219      0.2638
    119  O         21.0810   54.5480   -8.0760 O.2   219  GLY219     -0.2714
    120  N         22.0160   55.8230   -6.4910 N.am  220  MET220     -0.1976
    121  CA        21.1840   56.9820   -6.8080 C.3   220  MET220      0.1605
    122  C         22.0190   58.2450   -7.0760 C.2   220  MET220      0.2287
    123  O         23.2400   58.2460   -6.8950 O.2   220  MET220     -0.2864
    124  CB        20.2030   57.2440   -5.6590 C.3   220  MET220      0.0413
    125  CG        20.8950   57.5150   -4.3270 C.3   220  MET220      0.0598
    126  SD        19.8030   58.0170   -2.9830 S.3   220  MET220     -0.1393
    127  CE        19.6010   59.7600   -3.3270 C.3   220  MET220      0.0692
    128  N         21.8760   53.8610   -0.3120 N.3   263  SER263     -0.1217
    129  CA        20.8030   54.6860   -0.8460 C.3   263  SER263      0.1889
    130  C         19.6070   54.6550    0.1090 C.2   263  SER263      0.2288
    131  O         18.8730   55.6350    0.2230 O.2   263  SER263     -0.2866
    132  CB        20.3910   54.2120   -2.2490 C.3   263  SER263      0.2089
    133  OG        19.8960   52.8840   -2.2340 O.3   263  SER263     -0.2183
    134  N         16.0840   50.1700   -1.7150 N.3   289  PRO289     -0.2102
    135  CA        16.6100   49.5370   -2.9290 C.3   289  PRO289      0.1504
    136  C         17.3180   48.1980   -2.7130 C.2   289  PRO289      0.2575
    137  O         17.1390   47.2630   -3.4950 O.2   289  PRO289     -0.2718
    138  CB        17.5310   50.6050   -3.4900 C.3   289  PRO289      0.0282
    139  CG        16.8040   51.8710   -3.1170 C.3   289  PRO289      0.0208
    140  CD        16.4540   51.5940   -1.6640 C.3   289  PRO289      0.0893
    141  N         18.1210   48.1040   -1.6610 N.am  290  ASP290     -0.1974
    142  CA        18.8350   46.8620   -1.3830 C.3   290  ASP290      0.1708
    143  C         19.3620   46.7980    0.0470 C.2   290  ASP290      0.2293
    144  O         19.3170   47.7850    0.7830 O.2   290  ASP290     -0.2864
    145  CB        19.9790   46.6620   -2.3920 C.3   290  ASP290      0.1436
    146  CG        21.0800   47.7100   -2.2690 C.2   290  ASP290      0.3671
    147  OD1       21.9870   47.7010   -3.1340 O.co2 290  ASP290     -0.2456
    148  OD2       21.0580   48.5280   -1.3170 O.co2 290  ASP290     -0.2456
    149  N         27.9340   46.5500    1.0010 N.3   295  TYR295     -0.1241
    150  CA        28.5800   47.7870    1.4090 C.3   295  TYR295      0.1605
    151  C         29.3430   47.6490    2.7200 C.2   295  TYR295      0.2264
    152  O         29.6010   48.6390    3.4070 O.2   295  TYR295     -0.2867
    153  CB        27.5370   48.8890    1.5380 C.3   295  TYR295      0.0534
    154  CG        26.6190   48.9770    0.3440 C.ar  295  TYR295     -0.0201
    155  CD1       25.3240   48.4590    0.3930 C.ar  295  TYR295     -0.0009
    156  CD2       27.0570   49.5510   -0.8500 C.ar  295  TYR295     -0.0009
    157  CE1       24.4890   48.5100   -0.7220 C.ar  295  TYR295      0.0417
    158  CE2       26.2380   49.6060   -1.9640 C.ar  295  TYR295      0.0417
    159  CZ        24.9560   49.0860   -1.8970 C.ar  295  TYR295      0.1957
    160  OH        24.1540   49.1450   -3.0060 O.3   295  TYR295     -0.2866
@<TRIPOS>BOND
     1    33    34    1
     2    34    37    1
     3    34    35    1
     4    37    38    1
     5    21    20    2
     6    35    36    2
     7    38    40   am
     8    38    39    2
     9    20    19    1
    10    80    79    2
    11    19    22    1
    12    19    18    1
    13    22    23    1
    14    81    83    1
    15    81    78    1
    16    81    82    1
    17    79    78    1
    18    79    84   am
    19    78    77    1
    20    89    88    1
    21    89    90    1
    22    18    24    1
    23    88    86   am
    24    86    87    2
    25    86    85    1
    26    41    42    1
    27    23    24    1
    28    85    84    1
    29    91    90    2
    30    90    92   am
    31    12    11    2
    32    76    75    2
    33    77    75   am
    34    48    50   ar
    35    48    46   ar
    36    43    42    1
    37    43    44    2
    38    42    45    1
    39    75    74    1
    40    50    49   ar
    41    16    15    1
    42    16    17    1
    43    45    46    1
    44    15    14    1
    45    46    47   ar
    46    92    93    1
    47    11    10    1
    48    28    27    2
    49    27    26    1
    50    13    10    1
    51    13    14    1
    52    49    47   ar
    53    10     9    1
    54    72    71    1
    55   101   102    2
    56   101   100    1
    57    74    73    1
    58   105   103    1
    59    93    94    1
    60    93    96    1
    61    94    99   am
    62    94    95    2
    63    99   100    1
    64    73    69   am
    65    25    26    1
    66    26    29    1
    67     4     3    2
    68   100   103    1
    69    97    96    1
    70     9     3   am
    71    71    68    1
    72   103   104    1
    73    96    98    1
    74    69    70    2
    75    69    68    1
    76     3     2    1
    77    29    30    1
    78   119   118    2
    79    68    67    1
    80   104   106    1
    81   118   117    1
    82   118   120   am
    83     6     8    1
    84     6     5    1
    85   122   123    2
    86   122   121    1
    87     7     5    1
    88   121   120    1
    89   121   124    1
    90     2     5    1
    91     2     1    1
    92   117   116    1
    93    30    31    2
    94    30    32   am
    95    60    58   ar
    96    60    61   ar
    97    67    65   am
    98    62    61    1
    99   116   109   am
   100    58    56   ar
   101    61    59   ar
   102    66    65    2
   103   124   125    1
   104    65    64    1
   105    56    55    1
   106    56    57   ar
   107   109   108    1
   108   109   110    2
   109    59    57   ar
   110    55    52    1
   111   108   111    1
   112   108   107    1
   113   125   126    1
   114    54    53    2
   115   111   112    1
   116    64    63    1
   117   115   113   am
   118    53    63   am
   119    53    52    1
   120   112   113    1
   121   137   136    2
   122   138   139    1
   123   138   135    1
   124   127   126    1
   125   113   114    2
   126    52    51    1
   127   147   146   ar
   128   139   140    1
   129   160   159    1
   130   135   136    1
   131   135   134    1
   132   136   141   am
   133   145   146    1
   134   145   142    1
   135   146   148   ar
   136   132   133    1
   137   132   129    1
   138   158   159   ar
   139   158   156   ar
   140   159   157   ar
   141   134   140    1
   142   141   142    1
   143   142   143    1
   144   156   154   ar
   145   129   128    1
   146   129   130    1
   147   157   155   ar
   148   143   144    2
   149   130   131    2
   150   154   155   ar
   151   154   153    1
   152   149   150    1
   153   150   153    1
   154   150   151    1
   155   151   152    2
