@<TRIPOS>MOLECULE
tmp/2eg2A00.pdb
 102 99 0 0 0
SMALL
GASTEIGER

@<TRIPOS>ATOM
      1  N         11.6050   24.3500   10.8440 N.3     7  ILE7       -0.1245
      2  CA        12.8590   25.0200   11.2050 C.3     7  ILE7        0.1561
      3  C         12.5480   26.5060   10.9820 C.2     7  ILE7        0.2260
      4  O         12.2340   26.9090    9.8580 O.2     7  ILE7       -0.2867
      5  CB        14.0020   24.5800   10.2690 C.3     7  ILE7        0.0252
      6  CG1       14.1220   23.0430   10.2380 C.3     7  ILE7        0.0019
      7  CG2       15.3100   25.2270   10.7230 C.3     7  ILE7        0.0019
      8  CD1       14.1390   22.3620   11.6030 C.3     7  ILE7        0.0001
      9  N         19.2200   24.6130   16.8000 N.3    33  VAL33      -0.1231
     10  CA        19.9680   24.0090   15.6970 C.3    33  VAL33       0.1692
     11  C         20.6390   25.1320   14.8900 C.2    33  VAL33       0.2592
     12  O         20.5480   26.3120   15.2610 O.2    33  VAL33      -0.2718
     13  CB        18.9850   23.1770   14.7630 C.3    33  VAL33       0.0266
     14  CG1       18.2490   22.1230   15.5880 C.3    33  VAL33       0.0020
     15  CG2       17.9640   24.1080   14.0980 C.3    33  VAL33       0.0020
     16  N         21.3670   24.7690   13.8370 N.am   34  LYS34      -0.1966
     17  CA        21.9810   25.7740   12.9630 C.3    34  LYS34       0.1731
     18  C         21.6710   25.3060   11.5570 C.2    34  LYS34       0.2656
     19  O         21.4660   24.1030   11.3170 O.2    34  LYS34      -0.2711
     20  CB        23.5050   25.8430   13.1050 C.3    34  LYS34       0.0312
     21  CG        24.0450   25.9940   14.5080 C.3    34  LYS34       0.0038
     22  CD        25.5760   25.8560   14.4890 C.3    34  LYS34       0.0206
     23  CE        26.0080   24.5760   13.7610 C.3    34  LYS34       0.1093
     24  NZ        27.4770   24.3470   13.8010 N.3    34  LYS34      -0.1314
     25  N         21.6230   26.2330   10.6140 N.am   35  GLY35      -0.1716
     26  CA        21.3380   25.7860    9.2700 C.2    35  GLY35       0.1480
     27  C         21.6120   26.7910    8.1850 C.2    35  GLY35       0.2820
     28  O         22.1570   27.8630    8.4470 O.2    35  GLY35      -0.2669
     29  N         21.2760   26.3760    6.9610 N.am   36  PHE36      -0.1939
     30  CA        21.3560   27.1760    5.7460 C.3    36  PHE36       0.1642
     31  C         20.5040   26.4250    4.7250 C.2    36  PHE36       0.2290
     32  O         19.8850   25.4000    5.0600 O.2    36  PHE36      -0.2864
     33  CB        22.8000   27.3460    5.2470 C.3    36  PHE36       0.0560
     34  CG        23.3880   26.1150    4.6120 C.ar   36  PHE36      -0.0200
     35  CD1       22.9240   25.6490    3.3820 C.ar   36  PHE36      -0.0042
     36  CD2       24.4130   25.4240    5.2420 C.ar   36  PHE36      -0.0042
     37  CE1       23.4720   24.5120    2.7940 C.ar   36  PHE36      -0.0003
     38  CE2       24.9710   24.2830    4.6610 C.ar   36  PHE36      -0.0003
     39  CZ        24.5000   23.8260    3.4350 C.ar   36  PHE36      -0.0000
     40  N         19.0360   28.5850   14.2290 N.3    41  LYS41      -0.1245
     41  CA        17.6250   28.4050   13.9100 C.3    41  LYS41       0.1561
     42  C         17.0140   27.6420   15.0660 C.2    41  LYS41       0.2260
     43  O         17.7160   27.1500   15.9710 O.2    41  LYS41      -0.2867
     44  CB        17.4380   27.5660   12.6290 C.3    41  LYS41       0.0271
     45  CG        18.1380   28.0750   11.3760 C.3    41  LYS41       0.0035
     46  CD        17.5440   29.3420   10.8080 C.3    41  LYS41       0.0206
     47  CE        18.3180   29.6790    9.5370 C.3    41  LYS41       0.1093
     48  NZ        17.7280   30.7810    8.7310 N.3    41  LYS41      -0.1314
     49  N         11.5190   37.2830    3.8840 N.3    68  ARG68      -0.1231
     50  CA        12.9510   37.3500    3.6290 C.3    68  ARG68       0.1694
     51  C         13.5280   35.9470    3.5520 C.2    68  ARG68       0.2592
     52  O         12.9270   34.9910    4.0490 O.2    68  ARG68      -0.2718
     53  CB        13.6540   38.1160    4.7530 C.3    68  ARG68       0.0321
     54  CG        13.2250   39.5670    4.9040 C.3    68  ARG68       0.0489
     55  CD        13.6710   40.3990    3.7010 C.3    68  ARG68       0.2205
     56  NE        13.3390   41.8170    3.8410 N.pl3  68  ARG68      -0.0865
     57  CZ        12.1000   42.3030    3.8590 C.cat  68  ARG68       0.5346
     58  NH1       11.0580   41.4870    3.7430 N.pl3  68  ARG68       0.1354
     59  NH2       11.9030   43.6080    4.0010 N.pl3  68  ARG68       0.1354
     60  N         14.7010   35.8350    2.9390 N.am   69  VAL69      -0.1966
     61  CA        15.3840   34.5540    2.7980 C.3    69  VAL69       0.1727
     62  C         15.7270   33.9760    4.1730 C.2    69  VAL69       0.2617
     63  O         16.0600   34.7160    5.1020 O.2    69  VAL69      -0.2715
     64  CB        16.7100   34.7000    2.0100 C.3    69  VAL69       0.0290
     65  CG1       17.2520   33.3310    1.6510 C.3    69  VAL69       0.0023
     66  CG2       16.4950   35.5460    0.7610 C.3    69  VAL69       0.0023
     67  N         15.6320   32.6580    4.3010 N.am   70  GLY70      -0.1940
     68  CA        15.9640   32.0180    5.5620 C.3    70  GLY70       0.2014
     69  C         14.8040   31.7350    6.4970 C.2    70  GLY70       0.2639
     70  O         15.0230   31.2320    7.6060 O.2    70  GLY70      -0.2714
     71  N         13.5810   32.0530    6.0670 N.am   71  ASP71      -0.1957
     72  CA        12.3900   31.8390    6.8920 C.3    71  ASP71       0.1840
     73  C         12.2650   30.3870    7.3500 C.2    71  ASP71       0.2623
     74  O         11.6860   30.1080    8.3940 O.2    71  ASP71      -0.2715
     75  CB        11.1360   32.2410    6.1250 C.3    71  ASP71       0.1450
     76  CG        10.8760   33.7280    6.1730 C.2    71  ASP71       0.3671
     77  OD1       11.6220   34.4500    6.8810 O.co2  71  ASP71      -0.2456
     78  OD2        9.9170   34.1710    5.5240 O.co2  71  ASP71      -0.2456
     79  N         12.8030   29.4620    6.5690 N.am   72  GLY72      -0.1940
     80  CA        12.7290   28.0630    6.9730 C.3    72  GLY72       0.2014
     81  C         11.7910   27.1660    6.1960 C.2    72  GLY72       0.2638
     82  O         11.1870   27.5690    5.2060 O.2    72  GLY72      -0.2714
     83  N         11.6700   25.9280    6.6620 N.am   73  LYS73      -0.1977
     84  CA        10.8400   24.9370    5.9830 C.3    73  LYS73       0.1596
     85  C         10.1270   24.0730    7.0000 C.2    73  LYS73       0.2287
     86  O         10.5290   24.0170    8.1620 O.2    73  LYS73      -0.2864
     87  CB        11.6970   24.0210    5.0930 C.3    73  LYS73       0.0298
     88  CG        12.4630   24.7240    3.9700 C.3    73  LYS73       0.0038
     89  CD        12.8760   23.7260    2.8930 C.3    73  LYS73       0.0206
     90  CE        13.7540   24.3710    1.8280 C.3    73  LYS73       0.1093
     91  NZ        14.3110   23.3400    0.9060 N.3    73  LYS73      -0.1314
     92  N          8.4720   20.0960    7.4220 N.3    75  PHE75      -0.1241
     93  CA         8.4790   18.7450    6.9000 C.3    75  PHE75       0.1605
     94  C          7.3640   17.9800    7.5830 C.2    75  PHE75       0.2264
     95  O          7.1870   18.0950    8.7970 O.2    75  PHE75      -0.2867
     96  CB         9.8260   18.0540    7.1990 C.3    75  PHE75       0.0534
     97  CG        11.0140   18.8410    6.7360 C.ar   75  PHE75      -0.0203
     98  CD1       11.1410   19.2190    5.4050 C.ar   75  PHE75      -0.0042
     99  CD2       12.0080   19.2180    7.6380 C.ar   75  PHE75      -0.0042
    100  CE1       12.2360   19.9680    4.9770 C.ar   75  PHE75      -0.0003
    101  CE2       13.1080   19.9690    7.2030 C.ar   75  PHE75      -0.0003
    102  CZ        13.2100   20.3410    5.8710 C.ar   75  PHE75      -0.0000
@<TRIPOS>BOND
     1    66    64    1
     2    91    90    1
     3    65    64    1
     4    90    89    1
     5    64    61    1
     6    37    35   ar
     7    37    39   ar
     8    61    60    1
     9    61    62    1
    10    89    88    1
    11    60    51   am
    12    35    34   ar
    13    39    38   ar
    14    51    50    1
    15    51    52    2
    16    50    49    1
    17    50    53    1
    18    55    56    1
    19    55    54    1
    20    58    57    1
    21    56    57    2
    22    57    59    1
    23    88    87    1
    24    62    67   am
    25    62    63    2
    26    67    68    1
    27    34    36   ar
    28    34    33    1
    29    38    36   ar
    30    31    32    2
    31    31    30    1
    32    53    54    1
    33   100    98   ar
    34   100   102   ar
    35    87    84    1
    36    82    81    2
    37    33    30    1
    38    98    97   ar
    39    78    76   ar
    40    68    69    1
    41    30    29    1
    42   102   101   ar
    43    84    83    1
    44    84    85    1
    45    71    69   am
    46    71    72    1
    47    75    76    1
    48    75    72    1
    49    76    77   ar
    50    81    83   am
    51    81    80    1
    52    69    70    2
    53    79    80    1
    54    79    73   am
    55    97    96    1
    56    97    99   ar
    57    72    73    1
    58    93    96    1
    59    93    92    1
    60    93    94    1
    61    29    27   am
    62    85    86    2
    63   101    99   ar
    64    73    74    2
    65    94    95    2
    66    27    28    2
    67    27    26    1
    68    48    47    1
    69    26    25    2
    70    47    46    1
    71     4     3    2
    72     6     5    1
    73     6     8    1
    74     5     7    1
    75     5     2    1
    76    25    18    1
    77    46    45    1
    78     1     2    1
    79     3     2    1
    80    19    18    2
    81    45    44    1
    82    18    17    1
    83    44    41    1
    84    17    20    1
    85    17    16    1
    86    20    21    1
    87    23    24    1
    88    23    22    1
    89    16    11   am
    90    41    40    1
    91    41    42    1
    92    15    13    1
    93    22    21    1
    94    13    14    1
    95    13    10    1
    96    11    12    2
    97    11    10    1
    98    42    43    2
    99    10     9    1
