@<TRIPOS>MOLECULE
tmp/2eg5B01.pdb
 165 161 0 0 0
SMALL
GASTEIGER

@<TRIPOS>ATOM
      1  N          6.6790   69.3480   95.6600 N.3     5  TYR5       -0.1241
      2  CA         5.9590   69.0790   96.9140 C.3     5  TYR5        0.1605
      3  C          5.1060   70.2790   97.3580 C.2     5  TYR5        0.2264
      4  O          3.9490   70.1100   97.7730 O.2     5  TYR5       -0.2867
      5  CB         6.9480   68.6710   98.0200 C.3     5  TYR5        0.0534
      6  CG         6.3130   68.2500   99.3390 C.ar    5  TYR5       -0.0201
      7  CD1        5.7880   66.9600   99.5070 C.ar    5  TYR5       -0.0009
      8  CD2        6.2520   69.1430  100.4240 C.ar    5  TYR5       -0.0009
      9  CE1        5.2060   66.5740  100.7200 C.ar    5  TYR5        0.0417
     10  CE2        5.6700   68.7710  101.6350 C.ar    5  TYR5        0.0417
     11  CZ         5.1550   67.4840  101.7790 C.ar    5  TYR5        0.1957
     12  OH         4.5850   67.1060  102.9710 O.3     5  TYR5       -0.2866
     13  N          1.9440   70.4390   95.5820 N.3     8  ASN8       -0.1225
     14  CA         1.2810   69.1110   95.6810 C.3     8  ASN8        0.1785
     15  C          0.9980   68.5670   97.1100 C.2     8  ASN8        0.2597
     16  O          0.9600   67.3520   97.3390 O.2     8  ASN8       -0.2718
     17  CB         2.0120   68.0640   94.8260 C.3     8  ASN8        0.1169
     18  CG         1.6460   68.1490   93.3650 C.2     8  ASN8        0.2627
     19  OD1        0.5840   67.6800   92.9560 O.2     8  ASN8       -0.2716
     20  ND2        2.5270   68.7360   92.5640 N.am    8  ASN8       -0.0877
     21  N          0.7790   69.4870   98.0470 N.am    9  SER9       -0.1952
     22  CA         0.2030   69.1880   99.3570 C.3     9  SER9        0.1924
     23  C         -1.3250   69.4090   99.3070 C.2     9  SER9        0.2314
     24  O         -1.9250   69.3580   98.2300 O.2     9  SER9       -0.2863
     25  CB         0.8550   70.0910  100.3970 C.3     9  SER9        0.2116
     26  OG         2.2800   70.0590  100.2850 O.3     9  SER9       -0.2180
     27  N         -3.6640   67.5490  100.9400 N.3    11  TYR11      -0.1227
     28  CA        -4.2150   66.3920  101.6260 C.3    11  TYR11       0.1736
     29  C         -3.6630   66.5290  103.0240 C.2    11  TYR11       0.2595
     30  O         -4.3430   66.2590  104.0030 O.2    11  TYR11      -0.2718
     31  CB        -3.7770   65.0990  100.9450 C.3    11  TYR11       0.0548
     32  CG        -3.8120   63.8860  101.8320 C.ar   11  TYR11      -0.0200
     33  CD1       -2.7640   63.6300  102.7210 C.ar   11  TYR11      -0.0009
     34  CD2       -4.8760   62.9760  101.7700 C.ar   11  TYR11      -0.0009
     35  CE1       -2.7780   62.5110  103.5270 C.ar   11  TYR11       0.0417
     36  CE2       -4.8980   61.8370  102.5720 C.ar   11  TYR11       0.0417
     37  CZ        -3.8570   61.6260  103.4440 C.ar   11  TYR11       0.1957
     38  OH        -3.8390   60.5400  104.2560 O.3    11  TYR11      -0.2866
     39  N         -2.4250   67.0230  103.0810 N.am   12  ASN12      -0.1974
     40  CA        -1.7260   67.3090  104.3260 C.3    12  ASN12       0.1688
     41  C         -2.3920   68.3740  105.1760 C.2    12  ASN12       0.2292
     42  O         -2.2360   68.3640  106.3890 O.2    12  ASN12      -0.2864
     43  CB        -0.3020   67.7050  104.0140 C.3    12  ASN12       0.1181
     44  CG         0.4160   66.6430  103.2280 C.2    12  ASN12       0.2629
     45  OD1        0.5610   66.7510  102.0100 O.2    12  ASN12      -0.2716
     46  ND2        0.8420   65.5770  103.9140 N.am   12  ASN12      -0.0877
     47  N          3.7440   62.9120  109.8840 N.3   140  TYR140     -0.1241
     48  CA         3.9710   62.2770  108.5720 C.3   140  TYR140      0.1605
     49  C          5.4150   62.0230  108.2330 C.2   140  TYR140      0.2264
     50  O          5.7630   62.0030  107.0690 O.2   140  TYR140     -0.2867
     51  CB         3.2640   63.0110  107.4110 C.3   140  TYR140      0.0534
     52  CG         1.9210   62.3820  107.0630 C.ar  140  TYR140     -0.0201
     53  CD1        0.9810   62.1030  108.0570 C.ar  140  TYR140     -0.0009
     54  CD2        1.6040   62.0540  105.7450 C.ar  140  TYR140     -0.0009
     55  CE1       -0.2120   61.5290  107.7480 C.ar  140  TYR140      0.0417
     56  CE2        0.3870   61.4690  105.4300 C.ar  140  TYR140      0.0417
     57  CZ        -0.5090   61.2130  106.4270 C.ar  140  TYR140      0.1957
     58  OH        -1.7290   60.6430  106.0960 O.3   140  TYR140     -0.2866
     59  N          6.9810   57.2110  109.1930 N.3   143  GLN143     -0.1231
     60  CA         7.0690   56.1720  108.1840 C.3   143  GLN143      0.1698
     61  C          8.4340   55.9260  107.6480 C.2   143  GLN143      0.2592
     62  O          8.7080   54.8670  107.1920 O.2   143  GLN143     -0.2718
     63  CB         6.1440   56.2950  106.9740 C.3   143  GLN143      0.0381
     64  CG         5.1410   57.3150  106.9320 C.3   143  GLN143      0.0905
     65  CD         5.6870   58.6830  106.7880 C.2   143  GLN143      0.2608
     66  OE1        5.7160   59.3980  107.7370 O.2   143  GLN143     -0.2717
     67  NE2        6.0610   59.0670  105.6000 N.am  143  GLN143     -0.0878
     68  N          9.2800   56.9310  107.6890 N.am  144  TRP144     -0.1976
     69  CA        10.5410   56.8810  106.9180 C.3   144  TRP144      0.1640
     70  C         11.5530   56.2950  107.8360 C.2   144  TRP144      0.2290
     71  O         11.8230   56.8470  108.9130 O.2   144  TRP144     -0.2864
     72  CB        10.9970   58.2430  106.5030 C.3   144  TRP144      0.0576
     73  CG        10.2470   58.8350  105.4400 C.ar  144  TRP144      0.0006
     74  CD1        9.3450   59.8750  105.5420 C.ar  144  TRP144      0.0946
     75  CD2       10.3470   58.5090  104.0370 C.ar  144  TRP144      0.0152
     76  NE1        8.8680   60.1970  104.2550 N.ar  144  TRP144     -0.2442
     77  CE2        9.4430   59.3510  103.3370 C.ar  144  TRP144      0.0810
     78  CE3       11.0510   57.5450  103.3200 C.ar  144  TRP144      0.0012
     79  CZ2        9.2730   59.2840  101.9170 C.ar  144  TRP144      0.0191
     80  CZ3       10.8700   57.4790  101.8990 C.ar  144  TRP144      0.0001
     81  CH2        9.9840   58.3370  101.2420 C.ar  144  TRP144      0.0015
     82  N          1.2600   57.8180  109.8250 N.3   208  ILE208     -0.1245
     83  CA         0.5090   56.8580  109.0800 C.3   208  ILE208      0.1561
     84  C          0.4780   55.5040  109.7900 C.2   208  ILE208      0.2260
     85  O          1.4870   55.0160  110.2400 O.2   208  ILE208     -0.2867
     86  CB         1.1620   56.7140  107.7090 C.3   208  ILE208      0.0252
     87  CG1        1.4090   58.1080  107.1390 C.3   208  ILE208      0.0019
     88  CG2        0.3120   55.8650  106.8530 C.3   208  ILE208      0.0019
     89  CD1        2.1250   58.1620  105.7630 C.3   208  ILE208      0.0001
     90  N         -1.4680   54.5650   99.2920 N.3   219  ALA219     -0.1231
     91  CA        -0.6980   55.0800   98.1810 C.3   219  ALA219      0.1694
     92  C          0.4650   54.1510   97.7650 C.2   219  ALA219      0.2591
     93  O          0.7970   54.0260   96.5660 O.2   219  ALA219     -0.2718
     94  CB        -0.1770   56.4860   98.5110 C.3   219  ALA219      0.0304
     95  N          1.0860   53.5070   98.7480 N.am  220  ILE220     -0.1980
     96  CA         2.1340   52.5190   98.4790 C.3   220  ILE220      0.1595
     97  C          1.5750   51.2710   97.7790 C.2   220  ILE220      0.2287
     98  O          2.0970   50.8550   96.7290 O.2   220  ILE220     -0.2864
     99  CB         2.9450   52.2080   99.7310 C.3   220  ILE220      0.0276
    100  CG1        3.4040   53.5190  100.3570 C.3   220  ILE220      0.0022
    101  CG2        4.1660   51.3550   99.3650 C.3   220  ILE220      0.0022
    102  CD1        4.3930   53.3680  101.3340 C.3   220  ILE220      0.0001
    103  N         -8.0210   59.8780   99.9830 N.3   278  TYR278     -0.1241
    104  CA        -7.0980   60.6120   99.1080 C.3   278  TYR278      0.1605
    105  C         -7.7450   61.7050   98.2680 C.2   278  TYR278      0.2264
    106  O         -7.0730   62.6080   97.8150 O.2   278  TYR278     -0.2867
    107  CB        -6.3160   59.6620   98.2050 C.3   278  TYR278      0.0534
    108  CG        -5.3690   58.7680   98.9510 C.ar  278  TYR278     -0.0201
    109  CD1       -4.7210   59.2150  100.0990 C.ar  278  TYR278     -0.0009
    110  CD2       -5.1140   57.4850   98.5030 C.ar  278  TYR278     -0.0009
    111  CE1       -3.8670   58.4050  100.7780 C.ar  278  TYR278      0.0417
    112  CE2       -4.2490   56.6540   99.1840 C.ar  278  TYR278      0.0417
    113  CZ        -3.6260   57.1230  100.3150 C.ar  278  TYR278      0.1957
    114  OH        -2.7600   56.3170  100.9990 O.3   278  TYR278     -0.2866
    115  N         -4.4580   62.6170   92.7930 N.3   290  VAL290     -0.1245
    116  CA        -3.8780   61.7500   93.8070 C.3   290  VAL290      0.1561
    117  C         -2.5220   61.2670   93.3200 C.2   290  VAL290      0.2260
    118  O         -1.5350   61.3230   94.0470 O.2   290  VAL290     -0.2867
    119  CB        -4.8110   60.5770   94.1370 C.3   290  VAL290      0.0252
    120  CG1       -4.1510   59.6280   95.1220 C.3   290  VAL290      0.0019
    121  CG2       -6.0920   61.1000   94.7340 C.3   290  VAL290      0.0019
    122  N          0.0480   63.9510   93.7870 N.3   293  SER293     -0.1202
    123  CA         0.3900   63.9790   95.2190 C.3   293  SER293      0.2020
    124  C          1.4400   62.9660   95.6090 C.2   293  SER293      0.2618
    125  O          2.3420   63.2750   96.3780 O.2   293  SER293     -0.2717
    126  CB        -0.8430   63.7330   96.0980 C.3   293  SER293      0.2103
    127  OG        -1.4750   64.9630   96.4400 O.3   293  SER293     -0.2182
    128  N          1.2910   61.7430   95.1020 N.am  294  VAL294     -0.1979
    129  CA         2.1160   60.6090   95.5460 C.3   294  VAL294      0.1595
    130  C          3.4750   60.7100   94.8520 C.2   294  VAL294      0.2287
    131  O          4.5200   60.4440   95.4310 O.2   294  VAL294     -0.2864
    132  CB         1.4200   59.2640   95.2330 C.3   294  VAL294      0.0276
    133  CG1        2.2980   58.0990   95.5850 C.3   294  VAL294      0.0022
    134  CG2        0.0630   59.1750   95.9370 C.3   294  VAL294      0.0022
    135  N          6.1170   62.9020   96.2570 N.3   297  VAL297     -0.1231
    136  CA         6.7860   62.3110   97.4320 C.3   297  VAL297      0.1692
    137  C          7.7910   61.2580   96.9780 C.2   297  VAL297      0.2592
    138  O          8.9500   61.2530   97.4040 O.2   297  VAL297     -0.2718
    139  CB         5.7950   61.6160   98.4110 C.3   297  VAL297      0.0266
    140  CG1        6.5590   60.9140   99.5400 C.3   297  VAL297      0.0020
    141  CG2        4.7200   62.6090   98.9510 C.3   297  VAL297      0.0020
    142  N          7.3340   60.3520   96.1320 N.am  298  TYR298     -0.1976
    143  CA         8.1280   59.1850   95.7400 C.3   298  TYR298      0.1639
    144  C          8.9560   59.2890   94.4290 C.2   298  TYR298      0.2290
    145  O          9.7070   58.3730   94.0920 O.2   298  TYR298     -0.2864
    146  CB         7.2320   57.9150   95.6870 C.3   298  TYR298      0.0560
    147  CG         6.7390   57.5400   97.0290 C.ar  298  TYR298     -0.0198
    148  CD1        7.6010   56.9410   97.9510 C.ar  298  TYR298     -0.0009
    149  CD2        5.4410   57.8340   97.4280 C.ar  298  TYR298     -0.0009
    150  CE1        7.1890   56.6150   99.2240 C.ar  298  TYR298      0.0417
    151  CE2        5.0110   57.5150   98.7460 C.ar  298  TYR298      0.0417
    152  CZ         5.8980   56.9020   99.6230 C.ar  298  TYR298      0.1957
    153  OH         5.5580   56.5700  100.9190 O.3   298  TYR298     -0.2866
    154  N         -5.1640   56.8580  103.6440 N.3   333  TYR333     -0.1241
    155  CA        -4.2830   56.4560  104.7200 C.3   333  TYR333      0.1605
    156  C         -5.0790   56.4300  106.0110 C.2   333  TYR333      0.2264
    157  O         -5.9270   57.2620  106.2270 O.2   333  TYR333     -0.2867
    158  CB        -3.1280   57.4380  104.9300 C.3   333  TYR333      0.0534
    159  CG        -1.8870   57.1620  104.1200 C.ar  333  TYR333     -0.0201
    160  CD1       -1.3290   55.8660  104.0540 C.ar  333  TYR333     -0.0009
    161  CD2       -1.2470   58.2220  103.4050 C.ar  333  TYR333     -0.0009
    162  CE1       -0.1770   55.6130  103.2790 C.ar  333  TYR333      0.0417
    163  CE2       -0.0890   57.9830  102.6530 C.ar  333  TYR333      0.0417
    164  CZ         0.4370   56.6780  102.6070 C.ar  333  TYR333      0.1957
    165  OH         1.5540   56.4500  101.8450 O.3   333  TYR333     -0.2866
@<TRIPOS>BOND
     1    20    18   am
     2   115   116    1
     3    19    18    2
     4   117   116    1
     5   117   118    2
     6    18    17    1
     7   122   123    1
     8   116   119    1
     9   145   144    2
    10   119   121    1
    11   119   120    1
    12   144   143    1
    13    17    14    1
    14   130   131    2
    15   130   129    1
    16   128   129    1
    17   128   124   am
    18   123   124    1
    19   123   126    1
    20   132   129    1
    21   132   133    1
    22   132   134    1
    23    13    14    1
    24   124   125    2
    25     1     2    1
    26    14    15    1
    27   146   143    1
    28   146   147    1
    29   143   142    1
    30   126   127    1
    31   142   137   am
    32   135   136    1
    33    93    92    2
    34    98    97    2
    35     2     3    1
    36     2     5    1
    37   137   138    2
    38   137   136    1
    39   147   149   ar
    40   147   148   ar
    41    15    16    2
    42    15    21   am
    43     3     4    2
    44   149   151   ar
    45   136   139    1
    46    92    91    1
    47    92    95   am
    48    97    96    1
    49   106   105    2
    50   148   150   ar
    51     5     6    1
    52    21    22    1
    53    91    94    1
    54    91    90    1
    55   107   108    1
    56   107   104    1
    57    24    23    2
    58   105   104    1
    59   139   141    1
    60   139   140    1
    61    96    95    1
    62    96    99    1
    63   110   108   ar
    64   110   112   ar
    65   151   152   ar
    66   108   109   ar
    67   104   103    1
    68   112   113   ar
    69   150   152   ar
    70    23    22    1
    71     6     7   ar
    72     6     8   ar
    73    22    25    1
    74   101    99    1
    75     7     9   ar
    76   152   153    1
    77    99   100    1
    78   109   111   ar
    79    26    25    1
    80   113   111   ar
    81   113   114    1
    82   100   102    1
    83     8    10   ar
    84     9    11   ar
    85    27    28    1
    86    31    28    1
    87    31    32    1
    88    81    80   ar
    89    81    79   ar
    90    28    29    1
    91    10    11   ar
    92    34    32   ar
    93    34    36   ar
    94    11    12    1
    95    32    33   ar
    96   165   164    1
    97    80    78   ar
    98    79    77   ar
    99    45    44    2
   100    36    37   ar
   101   164   163   ar
   102   164   162   ar
   103   163   161   ar
   104    33    35   ar
   105    29    39   am
   106    29    30    2
   107    39    40    1
   108    44    46   am
   109    44    43    1
   110   162   160   ar
   111    78    75   ar
   112    77    75   ar
   113    77    76   ar
   114   161   159   ar
   115    37    35   ar
   116    37    38    1
   117   154   155    1
   118    43    40    1
   119    75    73   ar
   120   160   159   ar
   121   159   158    1
   122    76    74   ar
   123    40    41    1
   124   155   158    1
   125   155   156    1
   126    41    42    2
   127    56    54   ar
   128    56    57   ar
   129    73    74   ar
   130    73    72    1
   131    67    65   am
   132    54    52   ar
   133    89    87    1
   134   156   157    2
   135    58    57    1
   136    57    55   ar
   137    72    69    1
   138    65    64    1
   139    65    66    2
   140    88    86    1
   141    69    68    1
   142    69    70    1
   143    64    63    1
   144    63    60    1
   145    52    51    1
   146    52    53   ar
   147    50    49    2
   148    87    86    1
   149    62    61    2
   150    51    48    1
   151    61    68   am
   152    61    60    1
   153    86    83    1
   154    55    53   ar
   155    70    71    2
   156    60    59    1
   157    49    48    1
   158    48    47    1
   159    83    84    1
   160    83    82    1
   161    84    85    2
