@<TRIPOS>MOLECULE
tmp/2eg7A00.pdb
 117 111 0 0 0
SMALL
GASTEIGER

@<TRIPOS>ATOM
      1  N         31.2540   42.7410   83.0150 N.3    13  HIS13      -0.1241
      2  CA        30.9530   42.7340   81.5940 C.3    13  HIS13       0.1621
      3  C         29.4920   43.1420   81.3680 C.2    13  HIS13       0.2264
      4  O         28.6080   42.3270   81.4870 O.2    13  HIS13      -0.2867
      5  CB        31.2160   41.3470   81.0320 C.3    13  HIS13       0.0745
      6  CG        31.1560   41.2540   79.5360 C.ar   13  HIS13       0.0817
      7  ND1       32.1130   40.5790   78.7910 N.ar   13  HIS13      -0.2268
      8  CD2       30.2300   41.6840   78.6480 C.ar   13  HIS13       0.1154
      9  CE1       31.7880   40.6310   77.5170 C.ar   13  HIS13       0.1986
     10  NE2       30.6480   41.2890   77.4010 N.ar   13  HIS13      -0.2212
     11  N         26.4840   45.6120   78.9630 N.3    15  HIS15      -0.1241
     12  CA        26.0070   46.5170   77.9090 C.3    15  HIS15       0.1621
     13  C         24.8460   47.3810   78.3730 C.2    15  HIS15       0.2264
     14  O         23.7910   46.8650   78.6960 O.2    15  HIS15      -0.2867
     15  CB        25.5880   45.7080   76.6900 C.3    15  HIS15       0.0745
     16  CG        26.6860   44.8690   76.1380 C.ar   15  HIS15       0.0817
     17  ND1       27.5800   45.3530   75.2140 N.ar   15  HIS15      -0.2268
     18  CD2       27.0790   43.6020   76.4220 C.ar   15  HIS15       0.1154
     19  CE1       28.4750   44.4180   74.9470 C.ar   15  HIS15       0.1986
     20  NE2       28.1850   43.3470   75.6590 N.ar   15  HIS15      -0.2212
     21  N         23.8220   50.2090   76.4580 N.3    17  ARG17      -0.1245
     22  CA        23.2560   50.8220   75.2780 C.3    17  ARG17       0.1563
     23  C         23.3490   52.3510   75.4210 C.2    17  ARG17       0.2260
     24  O         24.3360   52.8650   75.9750 O.2    17  ARG17      -0.2867
     25  CB        21.8130   50.3270   75.0550 C.3    17  ARG17       0.0307
     26  CG        21.6810   48.8070   75.1120 C.3    17  ARG17       0.0489
     27  CD        22.5330   48.1190   74.0770 C.3    17  ARG17       0.2205
     28  NE        22.1180   46.7240   73.8830 N.pl3  17  ARG17      -0.0865
     29  CZ        22.8720   45.7580   73.3690 C.cat  17  ARG17       0.5346
     30  NH1       24.1290   45.9740   72.9820 N.pl3  17  ARG17       0.1354
     31  NH2       22.3670   44.5570   73.2540 N.pl3  17  ARG17       0.1354
     32  N         30.4790   48.9810   72.5270 N.3    41  ASN41      -0.1240
     33  CA        29.9460   48.6770   71.2110 C.3    41  ASN41       0.1653
     34  C         28.6690   49.4490   70.9060 C.2    41  ASN41       0.2266
     35  O         27.6870   48.8680   70.5410 O.2    41  ASN41      -0.2867
     36  CB        29.7140   47.1560   71.0160 C.3    41  ASN41       0.1155
     37  CG        28.7200   46.5720   72.0090 C.2    41  ASN41       0.2627
     38  OD1       28.4780   47.1550   73.0760 O.2    41  ASN41      -0.2716
     39  ND2       28.1730   45.3960   71.6840 N.am   41  ASN41      -0.0877
     40  N         36.9350   42.8670   69.9410 N.3   100  TYR100     -0.1241
     41  CA        35.8970   42.0770   69.2950 C.3   100  TYR100      0.1605
     42  C         36.5060   41.3220   68.1270 C.2   100  TYR100      0.2264
     43  O         37.6050   41.6710   67.6660 O.2   100  TYR100     -0.2867
     44  CB        34.7540   42.9800   68.8480 C.3   100  TYR100      0.0534
     45  CG        33.8890   43.4560   70.0080 C.ar  100  TYR100     -0.0201
     46  CD1       34.0440   44.7400   70.5420 C.ar  100  TYR100     -0.0009
     47  CD2       32.9170   42.6340   70.5510 C.ar  100  TYR100     -0.0009
     48  CE1       33.2500   45.1830   71.5940 C.ar  100  TYR100      0.0417
     49  CE2       32.0920   43.0740   71.5890 C.ar  100  TYR100      0.0417
     50  CZ        32.2600   44.3460   72.1070 C.ar  100  TYR100      0.1957
     51  OH        31.4590   44.7820   73.1480 O.3   100  TYR100     -0.2866
     52  N         36.5110   39.2650   73.4960 N.3   135  HIS135     -0.1241
     53  CA        35.4870   38.4020   72.9320 C.3   135  HIS135      0.1621
     54  C         36.1770   37.3620   71.9990 C.2   135  HIS135      0.2264
     55  O         36.5770   37.6510   70.8510 O.2   135  HIS135     -0.2867
     56  CB        34.3860   39.1970   72.2090 C.3   135  HIS135      0.0745
     57  CG        33.3060   38.3310   71.6240 C.ar  135  HIS135      0.0817
     58  ND1       31.9690   38.4740   71.9380 N.ar  135  HIS135     -0.2268
     59  CD2       33.3760   37.2890   70.7680 C.ar  135  HIS135      0.1154
     60  CE1       31.2690   37.5710   71.2830 C.ar  135  HIS135      0.1986
     61  NE2       32.1000   36.8400   70.5670 N.ar  135  HIS135     -0.2212
     62  N         33.1440   36.0810   78.9190 N.3   173  HIS173     -0.1241
     63  CA        31.9890   35.1580   78.7340 C.3   173  HIS173      0.1621
     64  C         32.3150   33.8170   78.0690 C.2   173  HIS173      0.2264
     65  O         31.8650   33.5240   76.9670 O.2   173  HIS173     -0.2867
     66  CB        30.8070   35.8380   78.0120 C.3   173  HIS173      0.0745
     67  CG        31.1740   36.5680   76.7580 C.ar  173  HIS173      0.0817
     68  ND1       31.9860   36.0240   75.7900 N.ar  173  HIS173     -0.2268
     69  CD2       30.8020   37.7890   76.2990 C.ar  173  HIS173      0.1154
     70  CE1       32.1380   36.8950   74.8100 C.ar  173  HIS173      0.1986
     71  NE2       31.4160   37.9690   75.0820 N.ar  173  HIS173     -0.2212
     72  N         22.0720   34.2600   72.2670 N.3   217  CYS217     -0.1221
     73  CA        23.1060   35.2410   72.5540 C.3   217  CYS217      0.1808
     74  C         24.4370   34.6800   72.0580 C.2   217  CYS217      0.2601
     75  O         24.5350   33.5010   71.6940 O.2   217  CYS217     -0.2717
     76  CB        23.2130   35.4950   74.0650 C.3   217  CYS217      0.0970
     77  SG        23.7400   34.0060   74.9610 S.3   217  CYS217     -0.0800
     78  N         25.4460   35.5340   72.0220 N.am  218  LEU218     -0.1979
     79  CA        26.7960   35.1300   71.6670 C.3   218  LEU218      0.1596
     80  C         27.7010   35.2610   72.9020 C.2   218  LEU218      0.2287
     81  O         27.4480   36.0820   73.7670 O.2   218  LEU218     -0.2864
     82  CB        27.3260   35.9970   70.5180 C.3   218  LEU218      0.0297
     83  CG        26.5240   36.0550   69.2110 C.3   218  LEU218      0.0022
     84  CD1       27.3700   36.8240   68.1370 C.3   218  LEU218      0.0001
     85  CD2       26.0930   34.6660   68.6870 C.3   218  LEU218      0.0001
     86  N         27.1190   40.0550   80.9590 N.3   246  ASP246     -0.1239
     87  CA        26.9040   40.2680   79.5390 C.3   246  ASP246      0.1674
     88  C         25.4540   40.5640   79.2560 C.2   246  ASP246      0.2266
     89  O         24.9190   40.1690   78.2140 O.2   246  ASP246     -0.2867
     90  CB        27.4010   39.1000   78.6950 C.3   246  ASP246      0.1410
     91  CG        27.6830   39.4940   77.2500 C.2   246  ASP246      0.3668
     92  OD1       27.9040   40.7050   76.9710 O.co2 246  ASP246     -0.2456
     93  OD2       27.6700   38.5830   76.3860 O.co2 246  ASP246     -0.2456
     94  N         22.5900   42.2150   77.7700 N.3   248  ALA248     -0.1245
     95  CA        22.7070   42.6610   76.3850 C.3   248  ALA248      0.1562
     96  C         21.3060   42.8050   75.8030 C.2   248  ALA248      0.2260
     97  O         20.8200   41.9440   75.0680 O.2   248  ALA248     -0.2867
     98  CB        23.5910   41.6650   75.5980 C.3   248  ALA248      0.0290
     99  N         17.7620   43.9870   73.9980 N.3   250  HIS250     -0.1241
    100  CA        17.1370   44.3090   72.7380 C.3   250  HIS250      0.1621
    101  C         15.6260   44.3300   72.9950 C.2   250  HIS250      0.2264
    102  O         15.1020   43.4640   73.7230 O.2   250  HIS250     -0.2867
    103  CB        17.4340   43.2340   71.6880 C.3   250  HIS250      0.0745
    104  CG        18.8880   43.1300   71.3400 C.ar  250  HIS250      0.0817
    105  ND1       19.4890   43.9460   70.4040 N.ar  250  HIS250     -0.2268
    106  CD2       19.8620   42.3400   71.8400 C.ar  250  HIS250      0.1154
    107  CE1       20.7730   43.6440   70.3330 C.ar  250  HIS250      0.1986
    108  NE2       21.0250   42.6720   71.1940 N.ar  250  HIS250     -0.2212
    109  N         21.0450   38.7680   68.9240 N.3   262  ALA262     -0.1231
    110  CA        21.7160   38.0680   70.0280 C.3   262  ALA262      0.1694
    111  C         21.8160   38.9680   71.2380 C.2   262  ALA262      0.2592
    112  O         22.1880   40.1190   71.1080 O.2   262  ALA262     -0.2718
    113  CB        23.1390   37.6370   69.5960 C.3   262  ALA262      0.0304
    114  N         21.5190   38.4180   72.4150 N.am  263  GLY263     -0.1957
    115  CA        21.6830   39.1140   73.6930 C.3   263  GLY263      0.1869
    116  C         20.5410   38.8400   74.6880 C.2   263  GLY263      0.2309
    117  O         19.3540   38.9730   74.3490 O.2   263  GLY263     -0.2863
@<TRIPOS>BOND
     1    43    42    2
     2    42    41    1
     3    84    83    1
     4    85    83    1
     5    44    41    1
     6    44    45    1
     7   109   110    1
     8    83    82    1
     9    41    40    1
    10   113   110    1
    11    45    46   ar
    12    45    47   ar
    13   110   111    1
    14   107   105   ar
    15   107   108   ar
    16   105   104   ar
    17    82    79    1
    18    35    34    2
    19    46    48   ar
    20    47    49   ar
    21    61    59   ar
    22    61    60   ar
    23    59    57   ar
    24    55    54    2
    25    34    33    1
    26    36    33    1
    27    36    37    1
    28   112   111    2
    29   108   106   ar
    30    33    32    1
    31   111   114   am
    32    60    58   ar
    33   104   103    1
    34   104   106   ar
    35    49    50   ar
    36    48    50   ar
    37    57    58   ar
    38    57    56    1
    39    79    78    1
    40    79    80    1
    41    39    37   am
    42   103   100    1
    43    75    74    2
    44    54    53    1
    45    37    38    2
    46    78    74   am
    47    74    73    1
    48    50    51    1
    49    56    53    1
    50    72    73    1
    51   114   115    1
    52    73    76    1
    53   100   101    1
    54   100    99    1
    55    80    81    2
    56    53    52    1
    57    30    29    1
    58   101   102    2
    59    31    29    1
    60    29    28    2
    61   115   116    1
    62    28    27    1
    63    76    77    1
    64    27    26    1
    65   117   116    2
    66    70    71   ar
    67    70    68   ar
    68    19    17   ar
    69    19    20   ar
    70    25    26    1
    71    25    22    1
    72    97    96    2
    73    71    69   ar
    74    17    16   ar
    75    22    23    1
    76    22    21    1
    77    23    24    2
    78    98    95    1
    79    20    18   ar
    80    68    67   ar
    81    96    95    1
    82    16    18   ar
    83    16    15    1
    84    69    67   ar
    85    95    94    1
    86    93    91   ar
    87    15    12    1
    88    67    66    1
    89    65    64    2
    90    92    91   ar
    91    91    90    1
    92    10     9   ar
    93    10     8   ar
    94     9     7   ar
    95    12    13    1
    96    12    11    1
    97    66    63    1
    98    64    63    1
    99    89    88    2
   100    13    14    2
   101     8     6   ar
   102    90    87    1
   103    63    62    1
   104     7     6   ar
   105    88    87    1
   106     6     5    1
   107    87    86    1
   108     5     2    1
   109     3     4    2
   110     3     2    1
   111     2     1    1
