@<TRIPOS>MOLECULE
tmp/2eghA00.pdb
 138 128 0 0 0
SMALL
GASTEIGER

@<TRIPOS>ATOM
      1  N         22.7320    8.1820   67.1000 N.3   125  LYS125     -0.1245
      2  CA        23.4030    9.4820   67.0330 C.3   125  LYS125      0.1561
      3  C         24.4670    9.7170   68.1000 C.2   125  LYS125      0.2260
      4  O         25.4610   10.3990   67.8470 O.2   125  LYS125     -0.2867
      5  CB        22.3650   10.6110   67.1290 C.3   125  LYS125      0.0271
      6  CG        21.5820   10.8710   65.8530 C.3   125  LYS125      0.0035
      7  CD        20.6840   12.0970   66.0040 C.3   125  LYS125      0.0206
      8  CE        20.2620   12.6540   64.6460 C.3   125  LYS125      0.1093
      9  NZ        19.5010   11.6780   63.8220 N.3   125  LYS125     -0.1314
     10  N         21.0480    6.2220   59.4180 N.3   150  ASP150     -0.1225
     11  CA        20.2670    7.4550   59.4520 C.3   150  ASP150      0.1805
     12  C         20.0200    7.8990   58.0060 C.2   150  ASP150      0.2598
     13  O         20.9500    7.9500   57.2110 O.2   150  ASP150     -0.2718
     14  CB        21.0390    8.5370   60.2060 C.3   150  ASP150      0.1424
     15  CG        20.3360    9.8760   60.1760 C.2   150  ASP150      0.3668
     16  OD1       19.2660    9.9940   60.8040 O.co2 150  ASP150     -0.2456
     17  OD2       20.8530   10.8070   59.5150 O.co2 150  ASP150     -0.2456
     18  N         18.7680    8.2210   57.6800 N.am  151  SER151     -0.1938
     19  CA        18.3730    8.6230   56.3270 C.3   151  SER151      0.2055
     20  C         19.3070    9.5920   55.5930 C.2   151  SER151      0.2642
     21  O         19.7360    9.3240   54.4630 O.2   151  SER151     -0.2714
     22  CB        16.9550    9.2120   56.3680 C.3   151  SER151      0.2130
     23  OG        16.4600    9.4570   55.0620 O.3   151  SER151     -0.2179
     24  N         19.6080   10.7190   56.2350 N.am  152  GLU152     -0.1976
     25  CA        20.4730   11.7320   55.6480 C.3   152  GLU152      0.1602
     26  C         21.8990   11.2370   55.4230 C.2   152  GLU152      0.2287
     27  O         22.4400   11.3490   54.3120 O.2   152  GLU152     -0.2864
     28  CB        20.5020   12.9850   56.5280 C.3   152  GLU152      0.0415
     29  CG        19.1580   13.7340   56.6310 C.3   152  GLU152      0.1163
     30  CD        18.2240   13.1930   57.7220 C.2   152  GLU152      0.3649
     31  OE1       17.0790   13.6790   57.8110 O.co2 152  GLU152     -0.2457
     32  OE2       18.6220   12.2960   58.4940 O.co2 152  GLU152     -0.2457
     33  N         16.9900   18.8400   55.3910 N.3   185  GLY185     -0.1210
     34  CA        16.0240   18.6510   56.4670 C.3   185  GLY185      0.1956
     35  C         14.7160   19.3580   56.1210 C.2   185  GLY185      0.2613
     36  O         14.7250   20.3360   55.3780 O.2   185  GLY185     -0.2717
     37  N         13.6010   18.8770   56.6630 N.am  186  SER186     -0.1938
     38  CA        12.2870   19.4580   56.3870 C.3   186  SER186      0.2055
     39  C         12.0750   20.8900   56.8740 C.2   186  SER186      0.2643
     40  O         11.3210   21.6390   56.2690 O.2   186  SER186     -0.2714
     41  CB        11.1860   18.5890   56.9940 C.3   186  SER186      0.2130
     42  OG        11.1230   18.7720   58.4050 O.3   186  SER186     -0.2179
     43  N         12.7230   21.2680   57.9700 N.am  187  GLY187     -0.1954
     44  CA        12.5340   22.6100   58.4940 C.3   187  GLY187      0.1869
     45  C         11.4520   22.6370   59.5670 C.2   187  GLY187      0.2309
     46  O         11.1920   23.6770   60.1820 O.2   187  GLY187     -0.2863
     47  N          5.8840   13.9860   56.9410 N.3   211  ASN211     -0.1225
     48  CA         6.7530   12.9230   56.4400 C.3   211  ASN211      0.1785
     49  C          6.9090   11.7070   57.3570 C.2   211  ASN211      0.2597
     50  O          6.0590   10.8150   57.3760 O.2   211  ASN211     -0.2718
     51  CB         8.1360   13.5090   56.1260 C.3   211  ASN211      0.1169
     52  CG         8.0570   14.8030   55.3280 C.2   211  ASN211      0.2627
     53  OD1        7.4730   14.8450   54.2430 O.2   211  ASN211     -0.2716
     54  ND2        8.6460   15.8670   55.8650 N.am  211  ASN211     -0.0877
     55  N          8.0100   11.6750   58.1030 N.am  212  TRP212     -0.1976
     56  CA         8.3060   10.5710   59.0120 C.3   212  TRP212      0.1640
     57  C          7.4460   10.6320   60.2750 C.2   212  TRP212      0.2290
     58  O          7.1030   11.7170   60.7510 O.2   212  TRP212     -0.2864
     59  CB         9.7880   10.5990   59.4110 C.3   212  TRP212      0.0576
     60  CG        10.7400   10.7580   58.2570 C.ar  212  TRP212      0.0006
     61  CD1       10.8990   11.8640   57.4650 C.ar  212  TRP212      0.0946
     62  CD2       11.6530    9.7730   57.7560 C.ar  212  TRP212      0.0152
     63  NE1       11.8520   11.6250   56.5010 N.ar  212  TRP212     -0.2442
     64  CE2       12.3310   10.3500   56.6570 C.ar  212  TRP212      0.0810
     65  CE3       11.9640    8.4580   58.1280 C.ar  212  TRP212      0.0012
     66  CZ2       13.3000    9.6550   55.9260 C.ar  212  TRP212      0.0191
     67  CZ3       12.9270    7.7680   57.4010 C.ar  212  TRP212      0.0001
     68  CH2       13.5830    8.3690   56.3120 C.ar  212  TRP212      0.0015
     69  N          8.0530    9.8640   63.6170 N.3   214  MET214     -0.1245
     70  CA         8.9870    9.6420   64.7160 C.3   214  MET214      0.1570
     71  C          8.3350   10.0120   66.0520 C.2   214  MET214      0.2261
     72  O          7.1880   10.4730   66.0900 O.2   214  MET214     -0.2867
     73  CB        10.2300   10.5050   64.4900 C.3   214  MET214      0.0387
     74  CG         9.9220   12.0020   64.4450 C.3   214  MET214      0.0595
     75  SD        10.9570   12.9520   63.3040 S.3   214  MET214     -0.1393
     76  CE         9.7830   13.3380   62.0110 C.3   214  MET214      0.0692
     77  N         12.0700   13.5320   68.9340 N.3   218  ILE218     -0.1245
     78  CA        12.6790   13.7870   67.6330 C.3   218  ILE218      0.1561
     79  C         11.8810   14.8020   66.8090 C.2   218  ILE218      0.2260
     80  O         12.4440   15.5140   65.9820 O.2   218  ILE218     -0.2867
     81  CB        12.8410   12.4730   66.8300 C.3   218  ILE218      0.0252
     82  CG1       13.6950   11.4900   67.6330 C.3   218  ILE218      0.0019
     83  CG2       13.5210   12.7440   65.4860 C.3   218  ILE218      0.0019
     84  CD1       15.1430   11.9240   68.0110 C.3   218  ILE218      0.0001
     85  N         13.2070   18.3320   65.3440 N.3   222  SER222     -0.1217
     86  CA        13.0090   18.6880   63.9500 C.3   222  SER222      0.1889
     87  C         12.4270   20.1090   63.8440 C.2   222  SER222      0.2288
     88  O         12.6690   20.8180   62.8670 O.2   222  SER222     -0.2866
     89  CB        12.0660   17.6840   63.2940 C.3   222  SER222      0.2089
     90  OG        11.8190   18.0500   61.9560 O.3   222  SER222     -0.2183
     91  N         15.3110   22.2850   64.7180 N.3   225  MET225     -0.1245
     92  CA        16.3580   21.8900   63.7900 C.3   225  MET225      0.1570
     93  C         17.6290   21.5180   64.5390 C.2   225  MET225      0.2261
     94  O         18.7400   21.5930   64.0090 O.2   225  MET225     -0.2867
     95  CB        16.6190   22.9610   62.7190 C.3   225  MET225      0.0387
     96  CG        15.6630   22.8150   61.5140 C.3   225  MET225      0.0595
     97  SD        16.1390   23.7630   60.0380 S.3   225  MET225     -0.1393
     98  CE        17.3110   22.5730   59.2460 C.3   225  MET225      0.0692
     99  N         17.9500   18.6240   65.4520 N.3   227  ASN227     -0.1225
    100  CA        18.1660   17.3380   64.8140 C.3   227  ASN227      0.1785
    101  C         19.1780   17.5090   63.6910 C.2   227  ASN227      0.2597
    102  O         20.1290   16.7270   63.5630 O.2   227  ASN227     -0.2718
    103  CB        16.8610   16.7950   64.2400 C.3   227  ASN227      0.1169
    104  CG        17.0480   15.4630   63.5400 C.2   227  ASN227      0.2627
    105  OD1       16.5440   15.2530   62.4340 O.2   227  ASN227     -0.2716
    106  ND2       17.7730   14.5500   64.1860 N.am  227  ASN227     -0.0877
    107  N         18.9730   18.5340   62.8730 N.am  228  LYS228     -0.1980
    108  CA        19.8880   18.7880   61.7730 C.3   228  LYS228      0.1596
    109  C         21.2300   19.2300   62.3610 C.2   228  LYS228      0.2287
    110  O         22.2970   18.9490   61.8020 O.2   228  LYS228     -0.2864
    111  CB        19.3270   19.8680   60.8520 C.3   228  LYS228      0.0298
    112  CG        19.8290   19.7670   59.4150 C.3   228  LYS228      0.0038
    113  CD        19.5850   18.3740   58.8280 C.3   228  LYS228      0.0206
    114  CE        18.1380   17.9390   59.0030 C.3   228  LYS228      0.1093
    115  NZ        17.9240   16.5390   58.5990 N.3   228  LYS228     -0.1314
    116  N         22.9910   16.1380   63.2720 N.3   231  GLU231     -0.1245
    117  CA        23.4050   15.4000   62.0840 C.3   231  GLU231      0.1567
    118  C         24.5760   16.1060   61.4090 C.2   231  GLU231      0.2260
    119  O         25.3360   15.4950   60.6490 O.2   231  GLU231     -0.2867
    120  CB        22.2310   15.2500   61.1170 C.3   231  GLU231      0.0388
    121  CG        21.0950   14.4120   61.7030 C.3   231  GLU231      0.1160
    122  CD        19.9330   14.2340   60.7430 C.2   231  GLU231      0.3649
    123  OE1       19.6840   15.1460   59.9230 O.co2 231  GLU231     -0.2457
    124  OE2       19.2660   13.1830   60.8120 O.co2 231  GLU231     -0.2457
    125  N         10.9320   16.5320   51.9090 N.3   254  SER254     -0.1217
    126  CA        11.7320   15.3840   52.3310 C.3   254  SER254      0.1889
    127  C         11.7540   14.2330   51.3260 C.2   254  SER254      0.2288
    128  O         11.7800   13.0680   51.7220 O.2   254  SER254     -0.2866
    129  CB        11.2400   14.8480   53.6850 C.3   254  SER254      0.2089
    130  OG        11.3620   15.8210   54.7080 O.3   254  SER254     -0.2183
    131  N         12.4420    3.6930   56.8610 N.3   276  MET276     -0.1245
    132  CA        13.7840    3.2920   57.2640 C.3   276  MET276      0.1570
    133  C         14.2770    1.9600   56.7230 C.2   276  MET276      0.2261
    134  O         15.4810    1.7020   56.7250 O.2   276  MET276     -0.2867
    135  CB        13.8990    3.2970   58.7860 C.3   276  MET276      0.0387
    136  CG        13.8670    4.6930   59.3680 C.3   276  MET276      0.0595
    137  SD        15.0840    5.7620   58.5510 S.3   276  MET276     -0.1393
    138  CE        16.6150    5.0700   59.1750 C.3   276  MET276      0.0692
@<TRIPOS>BOND
     1   127   128    2
     2   127   126    1
     3   125   126    1
     4   126   129    1
     5   129   130    1
     6    53    52    2
     7    27    26    2
     8    21    20    2
     9    23    22    1
    10    52    54   am
    11    52    51    1
    12    36    35    2
    13    33    34    1
    14    26    25    1
    15    20    24   am
    16    20    19    1
    17    25    24    1
    18    25    28    1
    19    66    68   ar
    20    66    64   ar
    21    35    34    1
    22    35    37   am
    23    51    48    1
    24    40    39    2
    25    68    67   ar
    26    19    22    1
    27    19    18    1
    28    38    37    1
    29    38    39    1
    30    38    41    1
    31    48    47    1
    32    48    49    1
    33    63    64   ar
    34    63    61   ar
    35    28    29    1
    36    29    30    1
    37    64    62   ar
    38   133   134    2
    39   133   132    1
    40   131   132    1
    41    39    43   am
    42    41    42    1
    43    13    12    2
    44   132   135    1
    45    49    50    2
    46    49    55   am
    47    67    65   ar
    48    61    60   ar
    49    18    12   am
    50    30    31   ar
    51    30    32   ar
    52    62    65   ar
    53    62    60   ar
    54    43    44    1
    55    12    11    1
    56    55    56    1
    57    60    59    1
    58    44    45    1
    59   137   138    1
    60   137   136    1
    61   115   114    1
    62   135   136    1
    63   113   114    1
    64   113   112    1
    65    56    59    1
    66    56    57    1
    67    98    97    1
    68   112   111    1
    69    10    11    1
    70    11    14    1
    71    17    15   ar
    72    45    46    2
    73   123   122   ar
    74    97    96    1
    75    15    14    1
    76    15    16   ar
    77    57    58    2
    78   119   118    2
    79   122   124   ar
    80   122   121    1
    81   111   108    1
    82   120   121    1
    83   120   117    1
    84   118   117    1
    85    96    95    1
    86   108   109    1
    87   108   107    1
    88   110   109    2
    89    90    89    1
    90    76    75    1
    91   117   116    1
    92   105   104    2
    93    95    92    1
    94    88    87    2
    95   107   101   am
    96    89    86    1
    97    75    74    1
    98   104   106   am
    99   104   103    1
   100   102   101    2
   101    69    70    1
   102   101   100    1
   103    92    93    1
   104    92    91    1
   105     9     8    1
   106    87    86    1
   107    86    85    1
   108    94    93    2
   109   103   100    1
   110    74    73    1
   111    73    70    1
   112     8     7    1
   113    70    71    1
   114   100    99    1
   115    83    81    1
   116     6     7    1
   117     6     5    1
   118    80    79    2
   119    71    72    2
   120    79    78    1
   121    81    78    1
   122    81    82    1
   123     2     1    1
   124     2     5    1
   125     2     3    1
   126    78    77    1
   127    82    84    1
   128     4     3    2
