@<TRIPOS>MOLECULE
tmp/2egwA00.pdb
 154 153 0 0 0
SMALL
GASTEIGER

@<TRIPOS>ATOM
      1  N         28.8960    5.3910   32.7150 N.3   161  LEU161     -0.1231
      2  CA        27.6480    5.1710   33.3960 C.3   161  LEU161      0.1693
      3  C         27.9010    4.3540   34.6350 C.2   161  LEU161      0.2592
      4  O         28.4360    3.2350   34.5610 O.2   161  LEU161     -0.2718
      5  CB        26.6530    4.4550   32.4990 C.3   161  LEU161      0.0284
      6  CG        25.9620    5.3360   31.4660 C.3   161  LEU161      0.0019
      7  CD1       24.6910    4.6310   30.9850 C.3   161  LEU161      0.0001
      8  CD2       25.6000    6.6780   32.0930 C.3   161  LEU161      0.0001
      9  N         27.5300    4.9200   35.7800 N.am  162  ASP162     -0.1960
     10  CA        27.7190    4.2200   37.0380 C.3   162  ASP162      0.1840
     11  C         26.5360    4.4150   37.9640 C.2   162  ASP162      0.2622
     12  O         26.1130    5.5420   38.2190 O.2   162  ASP162     -0.2715
     13  CB        29.0040    4.6880   37.7360 C.3   162  ASP162      0.1450
     14  CG        29.5430    3.6480   38.7050 C.2   162  ASP162      0.3671
     15  OD1       28.7230    3.0620   39.4350 O.co2 162  ASP162     -0.2456
     16  OD2       30.7750    3.4160   38.7370 O.co2 162  ASP162     -0.2456
     17  N         26.0050    3.3070   38.4660 N.am  163  ASN163     -0.1958
     18  CA        24.8730    3.3590   39.3670 C.3   163  ASN163      0.1819
     19  C         25.3830    3.4390   40.8050 C.2   163  ASN163      0.2621
     20  O         24.6900    3.9130   41.6980 O.2   163  ASN163     -0.2715
     21  CB        24.0020    2.1140   39.1760 C.3   163  ASN163      0.1195
     22  CG        24.7440    0.8050   39.5070 C.2   163  ASN163      0.2630
     23  OD1       24.2880    0.0180   40.3440 O.2   163  ASN163     -0.2716
     24  ND2       25.8840    0.5720   38.8480 N.am  163  ASN163     -0.0877
     25  N         26.6110    2.9860   41.0190 N.am  164  PHE164     -0.1974
     26  CA        27.2140    2.9810   42.3520 C.3   164  PHE164      0.1639
     27  C         27.6820    4.3490   42.8360 C.2   164  PHE164      0.2290
     28  O         27.6540    4.6280   44.0310 O.2   164  PHE164     -0.2864
     29  CB        28.4020    2.0050   42.4020 C.3   164  PHE164      0.0560
     30  CG        28.0270    0.5690   42.1470 C.ar  164  PHE164     -0.0200
     31  CD1       27.0390   -0.0550   42.9080 C.ar  164  PHE164     -0.0042
     32  CD2       28.6680   -0.1640   41.1490 C.ar  164  PHE164     -0.0042
     33  CE1       26.6920   -1.3910   42.6790 C.ar  164  PHE164     -0.0003
     34  CE2       28.3310   -1.4970   40.9130 C.ar  164  PHE164     -0.0003
     35  CZ        27.3400   -2.1120   41.6820 C.ar  164  PHE164     -0.0000
     36  N         29.9460    1.7570   29.5610 N.3   184  VAL184     -0.1231
     37  CA        28.8870    1.1060   30.3220 C.3   184  VAL184      0.1692
     38  C         29.4260   -0.2050   30.8880 C.2   184  VAL184      0.2593
     39  O         30.1670   -0.9110   30.2140 O.2   184  VAL184     -0.2718
     40  CB        27.6530    0.8640   29.3940 C.3   184  VAL184      0.0266
     41  CG1       26.5040    0.2060   30.1430 C.3   184  VAL184      0.0020
     42  CG2       27.1730    2.1910   28.8410 C.3   184  VAL184      0.0020
     43  N         29.0670   -0.5300   32.1270 N.am  185  GLY185     -0.1943
     44  CA        29.5710   -1.7560   32.7210 C.3   185  GLY185      0.1998
     45  C         28.7300   -2.9970   32.5060 C.2   185  GLY185      0.2481
     46  O         27.6090   -2.8990   32.0240 O.2   185  GLY185     -0.2729
     47  N         29.2380   -4.1870   32.8760 N.am  186  PRO186     -0.2715
     48  CA        28.5270   -5.4630   32.7240 C.3   186  PRO186      0.1536
     49  C         27.4690   -5.6940   33.8160 C.2   186  PRO186      0.2598
     50  O         27.2490   -4.8380   34.6760 O.2   186  PRO186     -0.2715
     51  CB        29.6540   -6.4800   32.7850 C.3   186  PRO186      0.0310
     52  CG        30.5350   -5.8840   33.8650 C.3   186  PRO186      0.0237
     53  CD        30.5590   -4.3970   33.4990 C.3   186  PRO186      0.0939
     54  N         26.8310   -6.8610   33.7780 N.am  187  GLU187     -0.1964
     55  CA        25.7790   -7.2080   34.7380 C.3   187  GLU187      0.1733
     56  C         26.2270   -6.9120   36.1630 C.2   187  GLU187      0.2617
     57  O         25.5040   -6.2840   36.9420 O.2   187  GLU187     -0.2715
     58  CB        25.4000   -8.6990   34.6160 C.3   187  GLU187      0.0429
     59  CG        24.9160   -9.1470   33.2260 C.3   187  GLU187      0.1163
     60  CD        26.0400   -9.6020   32.2850 C.2   187  GLU187      0.3649
     61  OE1       27.2030   -9.1330   32.4080 O.co2 187  GLU187     -0.2457
     62  OE2       25.7520  -10.4330   31.4010 O.co2 187  GLU187     -0.2457
     63  N         27.4350   -7.3670   36.4860 N.am  188  GLY188     -0.1940
     64  CA        27.9950   -7.1650   37.8090 C.3   188  GLY188      0.2014
     65  C         28.3470   -5.7310   38.1410 C.2   188  GLY188      0.2639
     66  O         28.4500   -5.3870   39.3110 O.2   188  GLY188     -0.2714
     67  N         28.5430   -4.8950   37.1260 N.am  189  GLY189     -0.1939
     68  CA        28.8680   -3.5030   37.3760 C.3   189  GLY189      0.2014
     69  C         30.3580   -3.2210   37.4470 C.2   189  GLY189      0.2638
     70  O         31.1940   -4.1000   37.1920 O.2   189  GLY189     -0.2714
     71  N         30.6880   -1.9750   37.7810 N.am  190  PHE190     -0.1973
     72  CA        32.0820   -1.5520   37.9030 C.3   190  PHE190      0.1639
     73  C         32.5280   -1.6180   39.3640 C.2   190  PHE190      0.2290
     74  O         31.7670   -1.2630   40.2800 O.2   190  PHE190     -0.2864
     75  CB        32.2550   -0.1140   37.4080 C.3   190  PHE190      0.0560
     76  CG        32.1380    0.0450   35.9220 C.ar  190  PHE190     -0.0200
     77  CD1       33.1280   -0.4470   35.0780 C.ar  190  PHE190     -0.0042
     78  CD2       31.0490    0.7110   35.3670 C.ar  190  PHE190     -0.0042
     79  CE1       33.0340   -0.2750   33.6970 C.ar  190  PHE190     -0.0003
     80  CE2       30.9460    0.8900   33.9940 C.ar  190  PHE190     -0.0003
     81  CZ        31.9360    0.3990   33.1550 C.ar  190  PHE190     -0.0000
     82  N         28.0430    9.6370   35.1640 N.3   206  VAL206     -0.1231
     83  CA        26.6200    9.9440   35.1310 C.3   206  VAL206      0.1692
     84  C         25.7990    8.9260   35.9050 C.2   206  VAL206      0.2592
     85  O         26.0670    7.7320   35.8320 O.2   206  VAL206     -0.2718
     86  CB        26.1300    9.9850   33.6830 C.3   206  VAL206      0.0266
     87  CG1       24.6210   10.0890   33.6300 C.3   206  VAL206      0.0020
     88  CG2       26.7630   11.1430   32.9940 C.3   206  VAL206      0.0020
     89  N         24.7970    9.4090   36.6350 N.am  207  LEU207     -0.1966
     90  CA        23.9040    8.5530   37.4140 C.3   207  LEU207      0.1728
     91  C         22.4760    8.6790   36.8420 C.2   207  LEU207      0.2616
     92  O         21.8690    9.7400   36.9410 O.2   207  LEU207     -0.2715
     93  CB        23.9140    9.0180   38.8710 C.3   207  LEU207      0.0311
     94  CG        23.4880    8.1230   40.0390 C.3   207  LEU207      0.0022
     95  CD1       23.1780    9.0370   41.2080 C.3   207  LEU207      0.0001
     96  CD2       22.2820    7.2960   39.7170 C.3   207  LEU207      0.0001
     97  N         21.9450    7.6100   36.2490 N.am  208  LEU208     -0.1977
     98  CA        20.5970    7.6430   35.6720 C.3   208  LEU208      0.1596
     99  C         19.5610    7.4580   36.7640 C.2   208  LEU208      0.2287
    100  O         19.8650    6.9130   37.8170 O.2   208  LEU208     -0.2864
    101  CB        20.4330    6.5670   34.5910 C.3   208  LEU208      0.0297
    102  CG        21.3470    6.7350   33.3690 C.3   208  LEU208      0.0022
    103  CD1       21.2640    5.4980   32.4780 C.3   208  LEU208      0.0001
    104  CD2       20.9590    7.9900   32.6030 C.3   208  LEU208      0.0001
    105  N         16.3080    4.2540   39.1260 N.3   211  TYR211     -0.1227
    106  CA        16.6470    2.9400   39.6500 C.3   211  TYR211      0.1736
    107  C         17.8380    2.3710   38.9300 C.2   211  TYR211      0.2596
    108  O         18.4310    3.0180   38.0680 O.2   211  TYR211     -0.2718
    109  CB        15.4780    1.9650   39.5040 C.3   211  TYR211      0.0548
    110  CG        14.2210    2.3740   40.2260 C.ar  211  TYR211     -0.0200
    111  CD1       14.1300    2.2990   41.6050 C.ar  211  TYR211     -0.0009
    112  CD2       13.1210    2.8580   39.5200 C.ar  211  TYR211     -0.0009
    113  CE1       12.9680    2.7010   42.2740 C.ar  211  TYR211      0.0417
    114  CE2       11.9520    3.2620   40.1750 C.ar  211  TYR211      0.0417
    115  CZ        11.8820    3.1810   41.5490 C.ar  211  TYR211      0.1957
    116  OH        10.7260    3.5630   42.1920 O.3   211  TYR211     -0.2866
    117  N         18.1860    1.1480   39.3100 N.am  212  THR212     -0.1939
    118  CA        19.2930    0.4390   38.7050 C.3   212  THR212      0.2028
    119  C         18.6950   -0.2310   37.4830 C.2   212  THR212      0.2642
    120  O         17.6470   -0.8700   37.5770 O.2   212  THR212     -0.2714
    121  CB        19.8270   -0.6360   39.6480 C.3   212  THR212      0.1808
    122  OG1       20.0550   -0.0600   40.9400 O.3   212  THR212     -0.2208
    123  CG2       21.1340   -1.2210   39.1050 C.3   212  THR212      0.0379
    124  N         19.3490   -0.0750   36.3400 N.am  213  LEU213     -0.1963
    125  CA        18.8580   -0.6550   35.1010 C.3   213  LEU213      0.1728
    126  C         19.7910   -1.7740   34.7040 C.2   213  LEU213      0.2616
    127  O         20.9310   -1.8060   35.1610 O.2   213  LEU213     -0.2715
    128  CB        18.8590    0.4050   34.0040 C.3   213  LEU213      0.0311
    129  CG        18.2680    1.7450   34.4420 C.3   213  LEU213      0.0022
    130  CD1       18.7750    2.8360   33.5350 C.3   213  LEU213      0.0001
    131  CD2       16.7490    1.6730   34.4450 C.3   213  LEU213      0.0001
    132  N         19.3100   -2.7110   33.8890 N.am  214  ARG214     -0.1963
    133  CA        20.1870   -3.7650   33.4190 C.3   214  ARG214      0.1729
    134  C         21.1100   -2.9810   32.5210 C.2   214  ARG214      0.2616
    135  O         20.7550   -1.8840   32.0900 O.2   214  ARG214     -0.2715
    136  CB        19.4390   -4.7940   32.5950 C.3   214  ARG214      0.0348
    137  CG        19.1600   -6.0760   33.3200 C.3   214  ARG214      0.0492
    138  CD        17.7080   -6.1840   33.7550 C.3   214  ARG214      0.2205
    139  NE        17.4610   -7.4880   34.3590 N.pl3 214  ARG214     -0.0865
    140  CZ        17.7660   -8.6510   33.7790 C.cat 214  ARG214      0.5346
    141  NH1       17.5110   -9.7950   34.4030 N.pl3 214  ARG214      0.1354
    142  NH2       18.3210   -8.6730   32.5710 N.pl3 214  ARG214      0.1354
    143  N         22.2800   -3.5210   32.2190 N.am  215  THR215     -0.1951
    144  CA        23.2050   -2.7760   31.3880 C.3   215  THR215      0.1897
    145  C         22.6030   -2.2890   30.0560 C.2   215  THR215      0.2313
    146  O         22.7780   -1.1120   29.7120 O.2   215  THR215     -0.2863
    147  CB        24.5450   -3.5720   31.1860 C.3   215  THR215      0.1794
    148  OG1       24.8810   -3.6590   29.7970 O.3   215  THR215     -0.2208
    149  CG2       24.4380   -4.9540   31.7900 C.3   215  THR215      0.0378
    150  N         20.2410    0.5690   30.1350 N.3   218  ALA218     -0.1245
    151  CA        20.9770    1.7580   30.4980 C.3   218  ALA218      0.1562
    152  C         21.5870    2.3280   29.2090 C.2   218  ALA218      0.2260
    153  O         21.5530    3.5330   28.9780 O.2   218  ALA218     -0.2867
    154  CB        22.0690    1.4130   31.5040 C.3   218  ALA218      0.0290
@<TRIPOS>BOND
     1    42    40    1
     2   153   152    2
     3   152   151    1
     4    40    41    1
     5    40    37    1
     6    36    37    1
     7   146   145    2
     8   148   147    1
     9   145   144    1
    10   150   151    1
    11    39    38    2
    12    37    38    1
    13   151   154    1
    14    38    43   am
    15     7     6    1
    16   147   144    1
    17   147   149    1
    18   144   143    1
    19    62    60   ar
    20     6     8    1
    21     6     5    1
    22    46    45    2
    23   135   134    2
    24    43    44    1
    25   143   134   am
    26    60    61   ar
    27    60    59    1
    28   103   102    1
    29     5     2    1
    30    45    44    1
    31    45    47   am
    32   134   133    1
    33   142   140    1
    34   136   137    1
    35   136   133    1
    36   104   102    1
    37     1     2    1
    38    48    51    1
    39    48    47    1
    40    48    49    1
    41    51    52    1
    42    47    53    1
    43    88    86    1
    44    81    79   ar
    45    81    80   ar
    46    59    58    1
    47   137   138    1
    48   102   101    1
    49     2     3    1
    50   133   132    1
    51    53    52    1
    52   130   129    1
    53    87    86    1
    54    86    83    1
    55    79    77   ar
    56   138   139    1
    57    54    49   am
    58    54    55    1
    59   140   139    2
    60   140   141    1
    61    49    50    2
    62   132   126   am
    63    80    78   ar
    64   128   129    1
    65   128   125    1
    66   129   131    1
    67     4     3    2
    68   101    98    1
    69    58    55    1
    70     3     9   am
    71   126   125    1
    72   126   127    2
    73    55    56    1
    74    77    76   ar
    75   125   124    1
    76    83    82    1
    77    83    84    1
    78    78    76   ar
    79    98    97    1
    80    98    99    1
    81     9    10    1
    82    85    84    2
    83    84    89   am
    84    76    75    1
    85    56    63   am
    86    56    57    2
    87    97    91   am
    88   124   119   am
    89    63    64    1
    90    89    90    1
    91    99   100    2
    92    91    92    2
    93    91    90    1
    94    10    13    1
    95    10    11    1
    96    67    68    1
    97    67    65   am
    98    70    69    2
    99    68    69    1
   100    75    72    1
   101    90    93    1
   102    69    71   am
   103   119   120    2
   104   119   118    1
   105    13    14    1
   106    71    72    1
   107    64    65    1
   108    72    73    1
   109    11    12    2
   110    11    17   am
   111   108   107    2
   112    65    66    2
   113    17    18    1
   114   118   117    1
   115   118   121    1
   116    14    16   ar
   117    14    15   ar
   118    24    22   am
   119    93    94    1
   120   107   117   am
   121   107   106    1
   122   123   121    1
   123   105   106    1
   124    21    18    1
   125    21    22    1
   126    73    74    2
   127    18    19    1
   128   109   106    1
   129   109   110    1
   130    22    23    2
   131   112   114   ar
   132   112   110   ar
   133   121   122    1
   134    96    94    1
   135    94    95    1
   136   114   115   ar
   137   110   111   ar
   138    19    25   am
   139    19    20    2
   140    34    32   ar
   141    34    35   ar
   142    25    26    1
   143    32    30   ar
   144   115   116    1
   145   115   113   ar
   146   111   113   ar
   147    35    33   ar
   148    30    29    1
   149    30    31   ar
   150    26    29    1
   151    26    27    1
   152    33    31   ar
   153    27    28    2
