@<TRIPOS>MOLECULE
tmp/2egzB00.pdb
 114 105 0 0 0
SMALL
GASTEIGER

@<TRIPOS>ATOM
      1  N         48.6940   30.8860   44.2930 N.3    28  GLU28      -0.1245
      2  CA        48.2880   30.5680   42.9350 C.3    28  GLU28       0.1567
      3  C         48.9070   31.5950   42.0000 C.2    28  GLU28       0.2260
      4  O         48.5930   32.7840   42.0810 O.2    28  GLU28      -0.2867
      5  CB        46.7670   30.6120   42.7740 C.3    28  GLU28       0.0388
      6  CG        46.3310   30.4530   41.3130 C.3    28  GLU28       0.1160
      7  CD        44.8270   30.4990   41.1220 C.2    28  GLU28       0.3649
      8  OE1       44.1760   31.3440   41.7660 O.co2  28  GLU28      -0.2457
      9  OE2       44.2990   29.7020   40.3140 O.co2  28  GLU28      -0.2457
     10  N         48.8680   33.4290   38.9100 N.3    30  ARG30      -0.1245
     11  CA        47.9560   33.7290   37.8150 C.3    30  ARG30       0.1563
     12  C         48.8300   34.2820   36.6990 C.2    30  ARG30       0.2260
     13  O         48.9430   35.4960   36.5240 O.2    30  ARG30      -0.2867
     14  CB        46.9150   34.7640   38.2520 C.3    30  ARG30       0.0307
     15  CG        45.8190   34.2020   39.1550 C.3    30  ARG30       0.0489
     16  CD        44.9760   33.1720   38.4100 C.3    30  ARG30       0.2205
     17  NE        44.3310   33.7590   37.2350 N.pl3  30  ARG30      -0.0865
     18  CZ        43.1600   34.3890   37.2540 C.cat  30  ARG30       0.5346
     19  NH1       42.4870   34.5120   38.3910 N.pl3  30  ARG30       0.1354
     20  NH2       42.6740   34.9170   36.1380 N.pl3  30  ARG30       0.1354
     21  N         44.9770   31.1950   33.1170 N.3    61  ARG61      -0.1245
     22  CA        43.5820   31.3330   32.7150 C.3    61  ARG61       0.1563
     23  C         43.3200   31.7440   31.2740 C.2    61  ARG61       0.2260
     24  O         43.8600   32.7360   30.7870 O.2    61  ARG61      -0.2867
     25  CB        42.8640   32.3120   33.6480 C.3    61  ARG61       0.0307
     26  CG        41.3490   32.2270   33.5590 C.3    61  ARG61       0.0489
     27  CD        40.8330   30.9500   34.2070 C.3    61  ARG61       0.2205
     28  NE        41.1270   30.9270   35.6370 N.pl3  61  ARG61      -0.0865
     29  CZ        40.5550   31.7290   36.5340 C.cat  61  ARG61       0.5346
     30  NH1       39.6450   32.6240   36.1620 N.pl3  61  ARG61       0.1354
     31  NH2       40.9050   31.6470   37.8090 N.pl3  61  ARG61       0.1354
     32  N         34.3230   28.2720   35.2910 N.3   116  HIS116     -0.1241
     33  CA        33.9080   29.5260   35.9030 C.3   116  HIS116      0.1621
     34  C         32.7110   30.1330   35.1840 C.2   116  HIS116      0.2264
     35  O         32.6050   30.0580   33.9600 O.2   116  HIS116     -0.2867
     36  CB        35.0390   30.5600   35.8770 C.3   116  HIS116      0.0745
     37  CG        36.3240   30.0830   36.4760 C.ar  116  HIS116      0.0817
     38  ND1       37.1100   29.1200   35.8840 N.ar  116  HIS116     -0.2268
     39  CD2       36.9750   30.4600   37.6020 C.ar  116  HIS116      0.1154
     40  CE1       38.1910   28.9230   36.6190 C.ar  116  HIS116      0.1986
     41  NE2       38.1340   29.7230   37.6660 N.ar  116  HIS116     -0.2212
     42  N         30.9190   33.7870   35.5490 N.3   118  PHE118     -0.1241
     43  CA        30.8890   35.0880   36.1980 C.3   118  PHE118      0.1605
     44  C         29.5280   35.7720   36.1980 C.2   118  PHE118      0.2264
     45  O         29.3890   36.8810   36.7190 O.2   118  PHE118     -0.2867
     46  CB        31.9310   35.9890   35.5310 C.3   118  PHE118      0.0534
     47  CG        33.3360   35.4710   35.6590 C.ar  118  PHE118     -0.0203
     48  CD1       34.0750   35.7080   36.8120 C.ar  118  PHE118     -0.0042
     49  CD2       33.8970   34.6900   34.6530 C.ar  118  PHE118     -0.0042
     50  CE1       35.3550   35.1700   36.9670 C.ar  118  PHE118     -0.0003
     51  CE2       35.1740   34.1480   34.7970 C.ar  118  PHE118     -0.0003
     52  CZ        35.9020   34.3890   35.9580 C.ar  118  PHE118     -0.0000
     53  N         36.8460   21.9200   39.9840 N.3   142  LYS142     -0.1245
     54  CA        36.6850   23.2110   40.6420 C.3   142  LYS142      0.1561
     55  C         35.5730   23.9690   39.9370 C.2   142  LYS142      0.2260
     56  O         35.5970   24.1120   38.7140 O.2   142  LYS142     -0.2867
     57  CB        37.9800   24.0300   40.5570 C.3   142  LYS142      0.0271
     58  CG        37.8150   25.4750   40.9970 C.3   142  LYS142      0.0035
     59  CD        39.1190   26.2600   40.9150 C.3   142  LYS142      0.0206
     60  CE        38.9130   27.6870   41.4100 C.3   142  LYS142      0.1093
     61  NZ        40.1660   28.5020   41.4070 N.3   142  LYS142     -0.1314
     62  N         33.5210   27.6320   40.0990 N.3   144  ALA144     -0.1245
     63  CA        33.4540   28.9800   40.6580 C.3   144  ALA144      0.1562
     64  C         32.3590   29.7090   39.8840 C.2   144  ALA144      0.2260
     65  O         32.5550   30.0760   38.7250 O.2   144  ALA144     -0.2867
     66  CB        34.7920   29.6890   40.4830 C.3   144  ALA144      0.0290
     67  N         33.1270   27.2350   44.8970 N.3   170  ILE170     -0.1245
     68  CA        33.1420   28.6540   45.2110 C.3   170  ILE170      0.1561
     69  C         31.9360   29.3770   44.6380 C.2   170  ILE170      0.2260
     70  O         31.7020   29.3350   43.4290 O.2   170  ILE170     -0.2867
     71  CB        34.4000   29.3460   44.6400 C.3   170  ILE170      0.0252
     72  CG1       35.6610   28.6590   45.1650 C.3   170  ILE170      0.0019
     73  CG2       34.4120   30.8160   45.0360 C.3   170  ILE170      0.0019
     74  CD1       36.9110   29.0560   44.4350 C.3   170  ILE170      0.0001
     75  N         30.8250   32.8400   43.9810 N.3   172  MET172     -0.1245
     76  CA        31.3790   34.1880   43.9300 C.3   172  MET172      0.1570
     77  C         30.3090   35.2430   44.1990 C.2   172  MET172      0.2261
     78  O         29.1100   34.9720   44.0910 O.2   172  MET172     -0.2867
     79  CB        32.0340   34.4410   42.5640 C.3   172  MET172      0.0387
     80  CG        33.1930   33.4910   42.2260 C.3   172  MET172      0.0595
     81  SD        34.0380   33.8210   40.6350 S.3   172  MET172     -0.1393
     82  CE        32.7300   33.3780   39.4640 C.3   172  MET172      0.0692
     83  N         32.8660   30.3090   51.0090 N.3   180  ARG180     -0.1245
     84  CA        34.3200   30.2610   51.1210 C.3   180  ARG180      0.1563
     85  C         34.7540   29.6210   52.4340 C.2   180  ARG180      0.2260
     86  O         35.8560   29.0760   52.5390 O.2   180  ARG180     -0.2867
     87  CB        34.8950   31.6750   50.9810 C.3   180  ARG180      0.0307
     88  CG        34.5980   32.2860   49.6140 C.3   180  ARG180      0.0489
     89  CD        35.2440   33.6520   49.4480 C.3   180  ARG180      0.2205
     90  NE        34.9190   34.2380   48.1500 N.pl3 180  ARG180     -0.0865
     91  CZ        35.5540   33.9630   47.0140 C.cat 180  ARG180      0.5346
     92  NH1       36.5700   33.1070   46.9980 N.pl3 180  ARG180      0.1354
     93  NH2       35.1650   34.5380   45.8890 N.pl3 180  ARG180      0.1354
     94  N         39.9390   30.2110   48.4210 N.3   192  TYR192     -0.1241
     95  CA        40.7680   31.2860   47.8830 C.3   192  TYR192      0.1605
     96  C         40.4890   32.6160   48.5630 C.2   192  TYR192      0.2264
     97  O         39.3340   33.0150   48.7310 O.2   192  TYR192     -0.2867
     98  CB        40.5300   31.4110   46.3750 C.3   192  TYR192      0.0534
     99  CG        40.8980   30.1650   45.6060 C.ar  192  TYR192     -0.0201
    100  CD1       41.9590   30.1700   44.7010 C.ar  192  TYR192     -0.0009
    101  CD2       40.1990   28.9700   45.7990 C.ar  192  TYR192     -0.0009
    102  CE1       42.3170   29.0070   43.9990 C.ar  192  TYR192      0.0417
    103  CE2       40.5480   27.8060   45.1070 C.ar  192  TYR192      0.0417
    104  CZ        41.6060   27.8340   44.2110 C.ar  192  TYR192      0.1957
    105  OH        41.9530   26.6910   43.5260 O.3   192  TYR192     -0.2866
    106  N         34.9810   38.5730   48.5810 N.3   202  GLN202     -0.1245
    107  CA        36.3190   38.1060   48.9190 C.3   202  GLN202      0.1566
    108  C         36.5740   38.1940   50.4150 C.2   202  GLN202      0.2260
    109  O         35.9700   39.0080   51.1200 O.2   202  GLN202     -0.2867
    110  CB        37.3850   38.9120   48.1700 C.3   202  GLN202      0.0367
    111  CG        37.2280   38.8880   46.6630 C.3   202  GLN202      0.0905
    112  CD        38.3800   39.5740   45.9490 C.2   202  GLN202      0.2608
    113  OE1       38.9170   40.5720   46.4310 O.2   202  GLN202     -0.2717
    114  NE2       38.7530   39.0510   44.7850 N.am  202  GLN202     -0.0878
@<TRIPOS>BOND
     1    24    23    2
     2    23    22    1
     3    22    21    1
     4    22    25    1
     5    26    25    1
     6    26    27    1
     7    35    34    2
     8    27    28    1
     9    49    51   ar
    10    49    47   ar
    11    51    52   ar
    12    34    33    1
    13    32    33    1
    14    46    47    1
    15    46    43    1
    16    42    43    1
    17    28    29    2
    18    47    48   ar
    19    36    33    1
    20    36    37    1
    21    38    37   ar
    22    38    40   ar
    23    52    50   ar
    24    20    18    1
    25    30    29    1
    26    43    44    1
    27    44    45    2
    28    37    39   ar
    29    13    12    2
    30    29    31    1
    31    40    41   ar
    32    12    11    1
    33    48    50   ar
    34    17    18    2
    35    17    16    1
    36    18    19    1
    37    39    41   ar
    38    11    14    1
    39    11    10    1
    40    14    15    1
    41    16    15    1
    42    56    55    2
    43    65    64    2
    44    82    81    1
    45    64    63    1
    46    55    54    1
    47    53    54    1
    48    62    63    1
    49     9     7   ar
    50    66    63    1
    51    57    54    1
    52    57    58    1
    53    81    80    1
    54    59    58    1
    55    59    60    1
    56     7     6    1
    57     7     8   ar
    58     6     5    1
    59    61    60    1
    60     3     4    2
    61     3     2    1
    62    80    79    1
    63    79    76    1
    64     5     2    1
    65     2     1    1
    66    70    69    2
    67   105   104    1
    68    76    75    1
    69    76    77    1
    70   102   104   ar
    71   102   100   ar
    72    78    77    2
    73   104   103   ar
    74    74    72    1
    75    69    68    1
    76    71    73    1
    77    71    72    1
    78    71    68    1
    79   100    99   ar
    80   114   112   am
    81    67    68    1
    82   103   101   ar
    83    99   101   ar
    84    99    98    1
    85    93    91    1
    86   112   113    2
    87   112   111    1
    88    98    95    1
    89   111   110    1
    90    92    91    1
    91    91    90    2
    92    95    94    1
    93    95    96    1
    94    90    89    1
    95   110   107    1
    96    96    97    2
    97   106   107    1
    98   107   108    1
    99    89    88    1
   100    88    87    1
   101   108   109    2
   102    87    84    1
   103    83    84    1
   104    84    85    1
   105    85    86    2
