@<TRIPOS>MOLECULE
tmp/2eh6A00.pdb
 117 111 0 0 0
SMALL
GASTEIGER

@<TRIPOS>ATOM
      1  N         24.9160   -0.4780   23.1090 N.3    37  ILE37      -0.1245
      2  CA        24.7810    0.0060   24.4820 C.3    37  ILE37       0.1561
      3  C         23.5300    0.8730   24.6240 C.2    37  ILE37       0.2260
      4  O         23.5860    1.9960   25.1300 O.2    37  ILE37      -0.2867
      5  CB        26.0040    0.8210   24.9530 C.3    37  ILE37       0.0252
      6  CG1       27.2980    0.0660   24.6440 C.3    37  ILE37       0.0019
      7  CG2       25.9360    1.0250   26.4700 C.3    37  ILE37       0.0019
      8  CD1       28.5490    0.8020   25.1130 C.3    37  ILE37       0.0001
      9  N         26.2240   14.2870   23.2170 N.3    94  SER94      -0.1202
     10  CA        26.4840   13.0290   23.8940 C.3    94  SER94       0.2020
     11  C         25.9220   13.0470   25.2900 C.2    94  SER94       0.2619
     12  O         25.4850   14.0890   25.7830 O.2    94  SER94      -0.2717
     13  CB        27.9910   12.7970   23.9920 C.3    94  SER94       0.2103
     14  OG        28.5990   13.8420   24.7510 O.3    94  SER94      -0.2182
     15  N         25.9690   11.8870   25.9270 N.am   95  GLY95      -0.1942
     16  CA        25.5000   11.7610   27.2830 C.3    95  GLY95       0.2014
     17  C         26.4100   12.5260   28.2270 C.2    95  GLY95       0.2639
     18  O         25.9300   13.1840   29.1490 O.2    95  GLY95      -0.2714
     19  N         27.7220   12.4580   28.0050 N.am   96  THR96      -0.1950
     20  CA        28.6500   13.1640   28.8860 C.3    96  THR96       0.1897
     21  C         28.4950   14.6790   28.7540 C.2    96  THR96       0.2313
     22  O         28.5400   15.3900   29.7570 O.2    96  THR96      -0.2863
     23  CB        30.1320   12.7520   28.6340 C.3    96  THR96       0.1794
     24  OG1       30.9470   13.2140   29.7250 O.3    96  THR96      -0.2208
     25  CG2       30.6480   13.3440   27.3290 C.3    96  THR96       0.0378
     26  N         27.7710    5.9500   36.6640 N.3   127  PHE127     -0.1227
     27  CA        28.5530    6.2740   35.4790 C.3   127  PHE127      0.1736
     28  C         27.8460    7.4090   34.7770 C.2   127  PHE127      0.2595
     29  O         26.7340    7.2320   34.2930 O.2   127  PHE127     -0.2718
     30  CB        28.6540    5.0920   34.5160 C.3   127  PHE127      0.0547
     31  CG        29.5490    5.3690   33.3500 C.ar  127  PHE127     -0.0202
     32  CD1       30.9300    5.2740   33.4850 C.ar  127  PHE127     -0.0042
     33  CD2       29.0200    5.8310   32.1480 C.ar  127  PHE127     -0.0042
     34  CE1       31.7770    5.6440   32.4420 C.ar  127  PHE127     -0.0003
     35  CE2       29.8540    6.2040   31.0990 C.ar  127  PHE127     -0.0003
     36  CZ        31.2350    6.1130   31.2460 C.ar  127  PHE127     -0.0000
     37  N         28.4920    8.5690   34.7100 N.am  128  HIS128     -0.1961
     38  CA        27.8770    9.7330   34.0850 C.3   128  HIS128      0.1787
     39  C         28.6500   10.3020   32.9000 C.2   128  HIS128      0.2621
     40  O         28.1790   11.2180   32.2340 O.2   128  HIS128     -0.2715
     41  CB        27.6660   10.8240   35.1440 C.3   128  HIS128      0.0785
     42  CG        26.7950   10.3910   36.2840 C.ar  128  HIS128      0.0821
     43  ND1       25.4730   10.0350   36.1160 N.ar  128  HIS128     -0.2267
     44  CD2       27.0640   10.2270   37.6010 C.ar  128  HIS128      0.1154
     45  CE1       24.9680    9.6660   37.2810 C.ar  128  HIS128      0.1986
     46  NE2       25.9130    9.7740   38.1980 N.ar  128  HIS128     -0.2212
     47  N         29.8290    9.7580   32.6270 N.am  129  GLY129     -0.1940
     48  CA        30.6100   10.2570   31.5100 C.3   129  GLY129      0.2014
     49  C         32.0950   10.3300   31.7970 C.2   129  GLY129      0.2638
     50  O         32.5280   10.1720   32.9460 O.2   129  GLY129     -0.2714
     51  N         32.8700   10.6000   30.7480 N.am  130  ARG130     -0.1977
     52  CA        34.3240   10.6570   30.8350 C.3   130  ARG130      0.1597
     53  C         34.9570   12.0430   30.8050 C.2   130  ARG130      0.2287
     54  O         36.1500   12.1660   31.0900 O.2   130  ARG130     -0.2864
     55  CB        34.9320    9.8310   29.7060 C.3   130  ARG130      0.0334
     56  CG        34.5060    8.3740   29.6810 C.3   130  ARG130      0.0492
     57  CD        35.3420    7.5140   30.6170 C.3   130  ARG130      0.2205
     58  NE        35.2340    6.1050   30.2550 N.pl3 130  ARG130     -0.0865
     59  CZ        36.0810    5.1570   30.6470 C.cat 130  ARG130      0.5346
     60  NH1       37.1160    5.4610   31.4260 N.pl3 130  ARG130      0.1354
     61  NH2       35.9030    3.9040   30.2480 N.pl3 130  ARG130      0.1354
     62  N         21.0970    7.7670   38.8930 N.3   179  GLU179     -0.1245
     63  CA        20.5380    6.9920   37.7880 C.3   179  GLU179      0.1567
     64  C         19.4410    6.1600   38.4510 C.2   179  GLU179      0.2260
     65  O         19.7050    5.5140   39.4590 O.2   179  GLU179     -0.2867
     66  CB        21.5850    6.0400   37.1950 C.3   179  GLU179      0.0388
     67  CG        22.7940    6.7210   36.5930 C.3   179  GLU179      0.1160
     68  CD        23.9700    5.7800   36.4610 C.2   179  GLU179      0.3649
     69  OE1       23.9730    4.9370   35.5330 O.co2 179  GLU179     -0.2457
     70  OE2       24.8890    5.8730   37.2990 O.co2 179  GLU179     -0.2457
     71  N         25.7040    0.7330   33.5530 N.3   184  GLU184     -0.1245
     72  CA        27.1090    0.3540   33.5000 C.3   184  GLU184      0.1567
     73  C         27.5650   -0.2540   34.8210 C.2   184  GLU184      0.2260
     74  O         28.3930   -1.1620   34.8370 O.2   184  GLU184     -0.2867
     75  CB        27.9580    1.5820   33.1410 C.3   184  GLU184      0.0388
     76  CG        29.4170    1.3100   32.7590 C.3   184  GLU184      0.1160
     77  CD        30.3110    1.0120   33.9540 C.2   184  GLU184      0.3649
     78  OE1       30.0890    1.6100   35.0290 O.co2 184  GLU184     -0.2457
     79  OE2       31.2480    0.1950   33.8170 O.co2 184  GLU184     -0.2457
     80  N         20.1100   11.2590   35.7710 N.3   212  ASP212     -0.1239
     81  CA        20.8120   10.9500   34.5380 C.3   212  ASP212      0.1674
     82  C         20.0130    9.8690   33.8120 C.2   212  ASP212      0.2266
     83  O         20.0550    8.7060   34.2050 O.2   212  ASP212     -0.2867
     84  CB        22.2140   10.4180   34.8630 C.3   212  ASP212      0.1410
     85  CG        23.0230   10.0980   33.6170 C.2   212  ASP212      0.3668
     86  OD1       22.4160    9.8470   32.5540 O.co2 212  ASP212     -0.2456
     87  OD2       24.2660   10.0780   33.7030 O.co2 212  ASP212     -0.2456
     88  N         20.4230    9.1390   30.5320 N.3   214  VAL214     -0.1231
     89  CA        21.1240    8.8560   29.2790 C.3   214  VAL214      0.1692
     90  C         20.9020    7.4160   28.8520 C.2   214  VAL214      0.2591
     91  O         20.6770    7.1390   27.6790 O.2   214  VAL214     -0.2718
     92  CB        22.6410    9.1200   29.4250 C.3   214  VAL214      0.0266
     93  CG1       23.4110    8.5040   28.2510 C.3   214  VAL214      0.0020
     94  CG2       22.8870   10.6250   29.4670 C.3   214  VAL214      0.0020
     95  N         20.9580    6.5060   29.8180 N.am  215  GLN215     -0.1979
     96  CA        20.7720    5.0870   29.5540 C.3   215  GLN215      0.1601
     97  C         19.3290    4.6130   29.7280 C.2   215  GLN215      0.2287
     98  O         18.8370    3.8180   28.9310 O.2   215  GLN215     -0.2864
     99  CB        21.6850    4.2690   30.4740 C.3   215  GLN215      0.0394
    100  CG        21.3630    2.7830   30.5070 C.3   215  GLN215      0.0908
    101  CD        22.2830    1.9440   29.6440 C.2   215  GLN215      0.2608
    102  OE1       23.1410    1.2160   30.1570 O.2   215  GLN215     -0.2717
    103  NE2       22.1160    2.0410   28.3250 N.am  215  GLN215     -0.0878
    104  N         20.3470   11.0070   26.1540 N.3   240  ALA240     -0.1231
    105  CA        21.2480   10.7650   25.0330 C.3   240  ALA240      0.1694
    106  C         21.0320    9.3490   24.5150 C.2   240  ALA240      0.2591
    107  O         19.9200    8.8260   24.5580 O.2   240  ALA240     -0.2718
    108  CB        22.7050   10.9660   25.4530 C.3   240  ALA240      0.0304
    109  N         22.1020    8.7300   24.0350 N.am  241  LYS241     -0.1980
    110  CA        22.0360    7.3810   23.4980 C.3   241  LYS241      0.1596
    111  C         20.8050    7.1180   22.6200 C.2   241  LYS241      0.2287
    112  O         20.7000    7.6530   21.5110 O.2   241  LYS241     -0.2864
    113  CB        22.1180    6.3580   24.6400 C.3   241  LYS241      0.0298
    114  CG        23.4950    6.3300   25.3270 C.3   241  LYS241      0.0038
    115  CD        23.7280    5.0530   26.1240 C.3   241  LYS241      0.0206
    116  CE        25.1990    4.9150   26.5620 C.3   241  LYS241      0.1093
    117  NZ        25.4250    5.7290   27.7790 N.3   241  LYS241     -0.1314
@<TRIPOS>BOND
     1   112   111    2
     2   111   110    1
     3     1     2    1
     4     9    10    1
     5   110   109    1
     6   110   113    1
     7    10    13    1
     8    10    11    1
     9    13    14    1
    10   109   106   am
    11     2     3    1
    12     2     5    1
    13   106   107    2
    14   106   105    1
    15     3     4    2
    16   113   114    1
    17     6     5    1
    18     6     8    1
    19     5     7    1
    20   105   108    1
    21   105   104    1
    22    11    12    2
    23    11    15   am
    24   114   115    1
    25    15    16    1
    26   115   116    1
    27   116   117    1
    28    16    17    1
    29    25    23    1
    30    91    90    2
    31    19    17   am
    32    19    20    1
    33    17    18    2
    34    93    92    1
    35   103   101   am
    36    23    20    1
    37    23    24    1
    38    21    20    1
    39    21    22    2
    40    90    89    1
    41    90    95   am
    42    98    97    2
    43    89    92    1
    44    89    88    1
    45    92    94    1
    46    96    97    1
    47    96    95    1
    48    96    99    1
    49   101   102    2
    50   101   100    1
    51    56    55    1
    52    56    57    1
    53    55    52    1
    54    61    59    1
    55    58    57    1
    56    58    59    2
    57    99   100    1
    58    59    60    1
    59    51    52    1
    60    51    49   am
    61    53    52    1
    62    53    54    2
    63    35    36   ar
    64    35    33   ar
    65    36    34   ar
    66    48    49    1
    67    48    47    1
    68    49    50    2
    69    33    31   ar
    70    40    39    2
    71    34    32   ar
    72    86    85   ar
    73    47    39   am
    74    76    75    1
    75    76    77    1
    76    39    38    1
    77    75    72    1
    78    31    32   ar
    79    31    30    1
    80    72    71    1
    81    72    73    1
    82    85    87   ar
    83    85    84    1
    84    82    83    2
    85    82    81    1
    86    79    77   ar
    87    77    78   ar
    88    38    37    1
    89    38    41    1
    90    29    28    2
    91    30    27    1
    92    81    84    1
    93    81    80    1
    94    37    28   am
    95    28    27    1
    96    73    74    2
    97    41    42    1
    98    27    26    1
    99    69    68   ar
   100    43    42   ar
   101    43    45   ar
   102    42    44   ar
   103    68    67    1
   104    68    70   ar
   105    67    66    1
   106    66    63    1
   107    45    46   ar
   108    44    46   ar
   109    63    64    1
   110    63    62    1
   111    64    65    2
