@<TRIPOS>MOLECULE
tmp/2eh8A00.pdb
 158 158 0 0 0
SMALL
GASTEIGER

@<TRIPOS>ATOM
      1  N         22.5570   -6.4820   45.4670 N.3    31  TYR31      -0.1227
      2  CA        23.8520   -6.7000   46.1010 C.3    31  TYR31       0.1736
      3  C         23.7630   -6.5810   47.6310 C.2    31  TYR31       0.2596
      4  O         22.7060   -6.2370   48.1720 O.2    31  TYR31      -0.2718
      5  CB        24.8430   -5.6740   45.5450 C.3    31  TYR31       0.0548
      6  CG        26.2930   -5.9800   45.8220 C.ar   31  TYR31      -0.0200
      7  CD1       26.8740   -7.1680   45.3770 C.ar   31  TYR31      -0.0009
      8  CD2       27.0950   -5.0670   46.5050 C.ar   31  TYR31      -0.0009
      9  CE1       28.2190   -7.4370   45.6030 C.ar   31  TYR31       0.0417
     10  CE2       28.4380   -5.3280   46.7380 C.ar   31  TYR31       0.0417
     11  CZ        28.9930   -6.5110   46.2810 C.ar   31  TYR31       0.1957
     12  OH        30.3280   -6.7530   46.4910 O.3    31  TYR31      -0.2866
     13  N         24.8620   -6.8920   48.3240 N.am   32  SER32      -0.1938
     14  CA        24.9030   -6.7790   49.7860 C.3    32  SER32       0.2055
     15  C         24.5890   -5.3130   50.0470 C.2    32  SER32       0.2643
     16  O         23.9100   -4.9500   51.0110 O.2    32  SER32      -0.2714
     17  CB        26.2990   -7.1300   50.3120 C.3    32  SER32       0.2130
     18  OG        27.2940   -6.2780   49.7650 O.3    32  SER32      -0.2179
     19  N         25.1080   -4.4810   49.1510 N.am   33  ASN33      -0.1971
     20  CA        24.8880   -3.0440   49.1570 C.3    33  ASN33       0.1688
     21  C         23.3860   -2.9650   48.8820 C.2    33  ASN33       0.2292
     22  O         22.8710   -3.7450   48.0790 O.2    33  ASN33      -0.2864
     23  CB        25.6780   -2.4210   47.9990 C.3    33  ASN33       0.1181
     24  CG        25.5090   -0.9210   47.9040 C.2    33  ASN33       0.2629
     25  OD1       26.0010   -0.1690   48.7520 O.2    33  ASN33      -0.2716
     26  ND2       24.8130   -0.4730   46.8610 N.am   33  ASN33      -0.0877
     27  N         21.6830   -1.4190   46.9830 N.3    35  LYS35      -0.1245
     28  CA        21.3530   -1.2020   45.5760 C.3    35  LYS35       0.1561
     29  C         21.4960   -2.3920   44.6100 C.2    35  LYS35       0.2260
     30  O         22.3730   -3.2500   44.7690 O.2    35  LYS35      -0.2867
     31  CB        22.2010   -0.0410   45.0440 C.3    35  LYS35       0.0271
     32  CG        22.3240    1.1380   46.0010 C.3    35  LYS35       0.0035
     33  CD        23.4290    2.0840   45.5580 C.3    35  LYS35       0.0206
     34  CE        23.7580    3.1090   46.6360 C.3    35  LYS35       0.1093
     35  NZ        24.9280    3.9600   46.2510 N.3    35  LYS35      -0.1314
     36  N         22.3510   -3.3070   40.8120 N.3    37  TYR37      -0.1227
     37  CA        23.0560   -2.7050   39.6820 C.3    37  TYR37       0.1736
     38  C         22.6070   -3.1610   38.2960 C.2    37  TYR37       0.2595
     39  O         22.9300   -4.2660   37.8580 O.2    37  TYR37      -0.2718
     40  CB        24.5660   -2.9410   39.8230 C.3    37  TYR37       0.0548
     41  CG        25.1700   -2.3510   41.0790 C.ar   37  TYR37      -0.0200
     42  CD1       24.9240   -2.9200   42.3300 C.ar   37  TYR37      -0.0009
     43  CD2       25.9690   -1.2050   41.0200 C.ar   37  TYR37      -0.0009
     44  CE1       25.4540   -2.3640   43.4930 C.ar   37  TYR37       0.0417
     45  CE2       26.5050   -0.6400   42.1780 C.ar   37  TYR37       0.0417
     46  CZ        26.2430   -1.2260   43.4110 C.ar   37  TYR37       0.1957
     47  OH        26.7660   -0.6720   44.5580 O.3    37  TYR37      -0.2866
     48  N         21.8820   -2.2930   37.5980 N.am   38  LEU38      -0.1966
     49  CA        21.4030   -2.6170   36.2610 C.3    38  LEU38       0.1728
     50  C         21.2440   -1.3740   35.3960 C.2    38  LEU38       0.2616
     51  O         20.6180   -0.3990   35.8070 O.2    38  LEU38      -0.2715
     52  CB        20.0590   -3.3360   36.3340 C.3    38  LEU38       0.0311
     53  CG        19.5800   -3.7990   34.9570 C.3    38  LEU38       0.0022
     54  CD1       20.3950   -5.0080   34.5360 C.3    38  LEU38       0.0001
     55  CD2       18.1090   -4.1450   34.9950 C.3    38  LEU38       0.0001
     56  N         21.8080   -1.4120   34.1920 N.am   39  ASN39      -0.1972
     57  CA        21.7060   -0.2750   33.2830 C.3    39  ASN39       0.1688
     58  C         20.9760   -0.6420   32.0010 C.2    39  ASN39       0.2292
     59  O         20.7170   -1.8190   31.7230 O.2    39  ASN39      -0.2864
     60  CB        23.0900    0.2550   32.8920 C.3    39  ASN39       0.1181
     61  CG        23.9680    0.5430   34.0840 C.2    39  ASN39       0.2629
     62  OD1       23.4850    0.9120   35.1530 O.2    39  ASN39      -0.2716
     63  ND2       25.2740    0.3940   33.9010 N.am   39  ASN39      -0.0877
     64  N         24.6710    4.9560   27.6640 N.3    51  ARG51      -0.1245
     65  CA        23.8630    4.5520   28.8070 C.3    51  ARG51       0.1563
     66  C         22.6660    5.4840   28.9280 C.2    51  ARG51       0.2260
     67  O         22.8020    6.7000   28.7750 O.2    51  ARG51      -0.2867
     68  CB        24.7090    4.5960   30.0800 C.3    51  ARG51       0.0307
     69  CG        24.0360    4.0130   31.3120 C.3    51  ARG51       0.0489
     70  CD        24.9610    4.1300   32.5100 C.3    51  ARG51       0.2205
     71  NE        25.3150    5.5230   32.7760 N.pl3  51  ARG51      -0.0865
     72  CZ        26.2570    5.9050   33.6300 C.cat  51  ARG51       0.5346
     73  NH1       26.9480    4.9980   34.3060 N.pl3  51  ARG51       0.1354
     74  NH2       26.5110    7.1960   33.8040 N.pl3  51  ARG51       0.1354
     75  N         20.6200    3.7110   34.8710 N.3    54  TYR54      -0.1227
     76  CA        21.4450    2.8980   35.7600 C.3    54  TYR54       0.1736
     77  C         20.6880    2.7360   37.0710 C.2    54  TYR54       0.2595
     78  O         19.6540    3.3710   37.2730 O.2    54  TYR54      -0.2718
     79  CB        22.8220    3.5330   36.0040 C.3    54  TYR54       0.0548
     80  CG        22.8070    4.9450   36.5350 C.ar   54  TYR54      -0.0200
     81  CD1       22.5900    6.0290   35.6840 C.ar   54  TYR54      -0.0009
     82  CD2       23.0230    5.2010   37.8900 C.ar   54  TYR54      -0.0009
     83  CE1       22.5910    7.3320   36.1690 C.ar   54  TYR54       0.0417
     84  CE2       23.0220    6.4980   38.3860 C.ar   54  TYR54       0.0417
     85  CZ        22.8060    7.5590   37.5220 C.ar   54  TYR54       0.1957
     86  OH        22.8000    8.8460   38.0090 O.3    54  TYR54      -0.2866
     87  N         21.1910    1.8850   37.9570 N.am   55  LEU55      -0.1980
     88  CA        20.5130    1.6470   39.2250 C.3    55  LEU55       0.1596
     89  C         19.0090    1.5140   38.9840 C.2    55  LEU55       0.2287
     90  O         18.1970    2.2020   39.5980 O.2    55  LEU55      -0.2864
     91  CB        20.8040    2.7860   40.2030 C.3    55  LEU55       0.0297
     92  CG        22.2530    2.8320   40.6920 C.3    55  LEU55       0.0022
     93  CD1       22.5070    4.1320   41.4460 C.3    55  LEU55       0.0001
     94  CD2       22.5350    1.6150   41.5670 C.3    55  LEU55       0.0001
     95  N         22.1480   -4.2630   30.9790 N.3    94  VAL94      -0.1231
     96  CA        23.4290   -4.7810   31.4470 C.3    94  VAL94       0.1692
     97  C         23.4710   -4.9890   32.9430 C.2    94  VAL94       0.2592
     98  O         23.0540   -4.1280   33.7140 O.2    94  VAL94      -0.2718
     99  CB        24.5890   -3.8430   31.1270 C.3    94  VAL94       0.0266
    100  CG1       25.8940   -4.6150   31.2520 C.3    94  VAL94       0.0020
    101  CG2       24.4260   -3.2550   29.7550 C.3    94  VAL94       0.0020
    102  N         24.0010   -6.1320   33.3470 N.am   95  GLN95      -0.1966
    103  CA        24.1190   -6.4560   34.7510 C.3    95  GLN95       0.1733
    104  C         25.4360   -5.9410   35.3200 C.2    95  GLN95       0.2617
    105  O         26.4550   -5.8850   34.6200 O.2    95  GLN95      -0.2715
    106  CB        24.0380   -7.9610   34.9210 C.3    95  GLN95       0.0408
    107  CG        24.3500   -8.4180   36.3060 C.3    95  GLN95       0.0908
    108  CD        25.3160   -9.5580   36.3000 C.2    95  GLN95       0.2608
    109  OE1       25.4240  -10.2850   37.2750 O.2    95  GLN95      -0.2717
    110  NE2       26.0370   -9.7220   35.2000 N.am   95  GLN95      -0.0878
    111  N         25.4090   -5.5790   36.5970 N.am   96  GLY96      -0.1940
    112  CA        26.6080   -5.0760   37.2290 C.3    96  GLY96       0.2014
    113  C         26.8200   -5.5850   38.6350 C.2    96  GLY96       0.2640
    114  O         27.8840   -5.3690   39.2130 O.2    96  GLY96      -0.2714
    115  N         25.8190   -6.2620   39.1870 N.am   97  THR97      -0.1936
    116  CA        25.9170   -6.7930   40.5440 C.3    97  THR97       0.2028
    117  C         26.9580   -7.9110   40.6640 C.2    97  THR97       0.2642
    118  O         27.9240   -7.7890   41.4180 O.2    97  THR97      -0.2714
    119  CB        24.5480   -7.3190   41.0280 C.3    97  THR97       0.1808
    120  OG1       23.6080   -6.2390   41.0390 O.3    97  THR97      -0.2208
    121  CG2       24.6580   -7.8960   42.4340 C.3    97  THR97       0.0379
    122  N         26.7580   -8.9930   39.9170 N.am   98  HIS98      -0.1959
    123  CA        27.6750  -10.1300   39.9460 C.3    98  HIS98       0.1787
    124  C         28.8650   -9.9250   39.0230 C.2    98  HIS98       0.2620
    125  O         29.0200   -8.8600   38.4210 O.2    98  HIS98      -0.2715
    126  CB        26.9420  -11.4090   39.5500 C.3    98  HIS98       0.0785
    127  CG        25.7720  -11.7250   40.4220 C.ar   98  HIS98       0.0821
    128  ND1       25.9040  -12.2560   41.6900 N.ar   98  HIS98      -0.2267
    129  CD2       24.4420  -11.5630   40.2220 C.ar   98  HIS98       0.1154
    130  CE1       24.7070  -12.4080   42.2280 C.ar   98  HIS98       0.1986
    131  NE2       23.8030  -11.9950   41.3570 N.ar   98  HIS98      -0.2212
    132  N         29.6960  -10.9600   38.9120 N.am   99  PHE99      -0.1960
    133  CA        30.8940  -10.9090   38.0810 C.3    99  PHE99       0.1756
    134  C         30.9320  -12.0630   37.0820 C.2    99  PHE99       0.2461
    135  O         30.6810  -13.2160   37.4430 O.2    99  PHE99      -0.2730
    136  CB        32.1480  -10.9710   38.9620 C.3    99  PHE99       0.0574
    137  CG        33.4320  -10.7050   38.2160 C.ar   99  PHE99      -0.0200
    138  CD1       33.8330   -9.3990   37.9360 C.ar   99  PHE99      -0.0042
    139  CD2       34.2260  -11.7590   37.7710 C.ar   99  PHE99      -0.0042
    140  CE1       35.0040   -9.1460   37.2220 C.ar   99  PHE99      -0.0003
    141  CE2       35.3990  -11.5210   37.0560 C.ar   99  PHE99      -0.0003
    142  CZ        35.7900  -10.2110   36.7800 C.ar   99  PHE99      -0.0000
    143  N         31.2310  -11.7640   35.8050 N.am  100  PRO100     -0.2716
    144  CA        31.5140  -10.4110   35.3110 C.3   100  PRO100      0.1536
    145  C         30.2270   -9.7780   34.7880 C.2   100  PRO100      0.2598
    146  O         29.2110  -10.4610   34.6570 O.2   100  PRO100     -0.2715
    147  CB        32.5130  -10.6700   34.1980 C.3   100  PRO100      0.0310
    148  CG        31.9580  -11.9150   33.5850 C.3   100  PRO100      0.0237
    149  CD        31.6030  -12.7720   34.7920 C.3   100  PRO100      0.0939
    150  N         30.2570   -8.4810   34.4940 N.am  101  GLN101     -0.1978
    151  CA        29.0600   -7.8330   33.9730 C.3   101  GLN101      0.1601
    152  C         28.6560   -8.5140   32.6640 C.2   101  GLN101      0.2287
    153  O         29.5010   -8.8800   31.8420 O.2   101  GLN101     -0.2864
    154  CB        29.3020   -6.3370   33.7460 C.3   101  GLN101      0.0394
    155  CG        30.5160   -6.0160   32.9130 C.3   101  GLN101      0.0908
    156  CD        30.7110   -4.5230   32.7400 C.2   101  GLN101      0.2608
    157  OE1       29.9960   -3.8790   31.9710 O.2   101  GLN101     -0.2717
    158  NE2       31.6760   -3.9590   33.4650 N.am  101  GLN101     -0.0878
@<TRIPOS>BOND
     1    64    65    1
     2    67    66    2
     3    65    66    1
     4    65    68    1
     5   101    99    1
     6    68    69    1
     7    95    96    1
     8    99   100    1
     9    99    96    1
    10    69    70    1
    11    96    97    1
    12    59    58    2
    13   153   152    2
    14   157   156    2
    15    58    57    1
    16    70    71    1
    17   152   151    1
    18   156   155    1
    19   156   158   am
    20    71    72    2
    21    60    57    1
    22    60    61    1
    23   155   154    1
    24    97   102   am
    25    97    98    2
    26    57    56    1
    27   102   103    1
    28   148   147    1
    29   148   149    1
    30    72    74    1
    31    72    73    1
    32   154   151    1
    33    63    61   am
    34   151   150    1
    35    61    62    2
    36    56    50   am
    37   147   144    1
    38   150   145   am
    39    54    53    1
    40   105   104    2
    41   146   145    2
    42   103   106    1
    43   103   104    1
    44   145   144    1
    45   149   143    1
    46    75    76    1
    47   106   107    1
    48    53    55    1
    49    53    52    1
    50   110   108   am
    51   144   143    1
    52   104   111   am
    53    50    51    2
    54    50    49    1
    55    81    83   ar
    56    81    80   ar
    57    76    79    1
    58    76    77    1
    59   143   134   am
    60    79    80    1
    61    83    85   ar
    62    49    52    1
    63    49    48    1
    64   108   107    1
    65   108   109    2
    66    80    82   ar
    67   111   112    1
    68   142   141   ar
    69   142   140   ar
    70   141   139   ar
    71    77    78    2
    72    77    87   am
    73   134   135    2
    74   134   133    1
    75   140   138   ar
    76   112   113    1
    77    85    86    1
    78    85    84   ar
    79    48    38   am
    80   139   137   ar
    81    39    38    2
    82    82    84   ar
    83   138   137   ar
    84    87    88    1
    85   133   132    1
    86   133   136    1
    87   137   136    1
    88    38    37    1
    89   125   124    2
    90   113   115   am
    91   113   114    2
    92   132   124   am
    93    89    88    1
    94    89    90    2
    95   124   123    1
    96   115   116    1
    97    88    91    1
    98   126   123    1
    99   126   127    1
   100    37    40    1
   101    37    36    1
   102    40    41    1
   103   122   123    1
   104   122   117   am
   105    91    92    1
   106   129   127   ar
   107   129   131   ar
   108   127   128   ar
   109   116   117    1
   110   116   119    1
   111   117   118    2
   112    92    93    1
   113    92    94    1
   114    43    41   ar
   115    43    45   ar
   116   119   120    1
   117   119   121    1
   118    41    42   ar
   119   131   130   ar
   120   128   130   ar
   121    45    46   ar
   122    42    44   ar
   123    46    44   ar
   124    46    47    1
   125    29    30    2
   126    29    28    1
   127    31    28    1
   128    31    32    1
   129     7     9   ar
   130     7     6   ar
   131     1     2    1
   132     5     6    1
   133     5     2    1
   134    33    32    1
   135    33    34    1
   136    28    27    1
   137     9    11   ar
   138     6     8   ar
   139     2     3    1
   140    35    34    1
   141    11    12    1
   142    11    10   ar
   143     8    10   ar
   144    26    24   am
   145     3     4    2
   146     3    13   am
   147    24    23    1
   148    24    25    2
   149    23    20    1
   150    22    21    2
   151    13    14    1
   152    21    20    1
   153    19    20    1
   154    19    15   am
   155    18    17    1
   156    14    15    1
   157    14    17    1
   158    15    16    2
