@<TRIPOS>MOLECULE
tmp/2ehqB00.pdb
 145 140 0 0 0
SMALL
GASTEIGER

@<TRIPOS>ATOM
      1  N         16.6580   40.6980  125.4200 N.3   180  ILE180     -0.1231
      2  CA        15.5710   40.3660  126.3510 C.3   180  ILE180      0.1692
      3  C         16.0580   39.1840  127.1750 C.2   180  ILE180      0.2592
      4  O         16.3440   38.1140  126.6140 O.2   180  ILE180     -0.2718
      5  CB        14.2490   40.0430  125.6040 C.3   180  ILE180      0.0266
      6  CG1       13.7940   41.2680  124.7970 C.3   180  ILE180      0.0019
      7  CG2       13.1650   39.6140  126.6000 C.3   180  ILE180      0.0020
      8  CD1       12.5890   41.0270  123.9240 C.3   180  ILE180      0.0001
      9  N         16.1760   39.3990  128.4850 N.am  181  ALA181     -0.1966
     10  CA        16.9720   38.5360  129.3520 C.3   181  ALA181      0.1713
     11  C         16.1500   37.8190  130.4360 C.2   181  ALA181      0.2458
     12  O         15.0800   38.2970  130.8340 O.2   181  ALA181     -0.2730
     13  CB        18.0960   39.3550  129.9920 C.3   181  ALA181      0.0333
     14  N         16.6470   36.6730  130.9230 N.am  182  PRO182     -0.2716
     15  CA        16.0040   35.8910  131.9820 C.3   182  PRO182      0.1536
     16  C         16.4510   36.3220  133.3860 C.2   182  PRO182      0.2598
     17  O         17.4350   37.0490  133.5280 O.2   182  PRO182     -0.2715
     18  CB        16.5140   34.4820  131.6940 C.3   182  PRO182      0.0310
     19  CG        17.9160   34.7070  131.1940 C.3   182  PRO182      0.0237
     20  CD        17.8680   36.0100  130.4250 C.3   182  PRO182      0.0939
     21  N         15.7300   35.8500  134.4080 N.am  183  TRP183     -0.1974
     22  CA        16.0390   36.1920  135.8020 C.3   183  TRP183      0.1640
     23  C         17.0130   35.2230  136.4470 C.2   183  TRP183      0.2290
     24  O         17.5180   35.4990  137.5330 O.2   183  TRP183     -0.2864
     25  CB        14.7520   36.2800  136.6640 C.3   183  TRP183      0.0576
     26  CG        13.8680   35.0980  136.5410 C.ar  183  TRP183      0.0006
     27  CD1       12.7510   35.0050  135.7710 C.ar  183  TRP183      0.0946
     28  CD2       14.0250   33.8180  137.1800 C.ar  183  TRP183      0.0152
     29  NE1       12.1950   33.7580  135.8860 N.ar  183  TRP183     -0.2442
     30  CE2       12.9630   33.0000  136.7330 C.ar  183  TRP183      0.0810
     31  CE3       14.9740   33.2750  138.0720 C.ar  183  TRP183      0.0012
     32  CZ2       12.8020   31.6790  137.1560 C.ar  183  TRP183      0.0191
     33  CZ3       14.8180   31.9540  138.4940 C.ar  183  TRP183      0.0001
     34  CH2       13.7310   31.1710  138.0340 C.ar  183  TRP183      0.0015
     35  N         16.3880   44.6830  128.1020 N.3   207  LYS207     -0.1245
     36  CA        15.1900   44.5530  128.8970 C.3   207  LYS207      0.1561
     37  C         15.4350   43.4090  129.9140 C.2   207  LYS207      0.2260
     38  O         15.3020   42.2220  129.5710 O.2   207  LYS207     -0.2867
     39  CB        14.0110   44.2410  127.9480 C.3   207  LYS207      0.0271
     40  CG        12.6420   44.8190  128.3480 C.3   207  LYS207      0.0035
     41  CD        12.1510   44.2830  129.6960 C.3   207  LYS207      0.0206
     42  CE        11.9020   42.7670  129.6940 C.3   207  LYS207      0.1093
     43  NZ        11.3530   42.3210  131.0120 N.3   207  LYS207     -0.1314
     44  N         14.8070   40.8220  133.0890 N.3   209  ALA209     -0.1231
     45  CA        13.6340   40.1530  133.6600 C.3   209  ALA209      0.1694
     46  C         13.1190   40.9140  134.8760 C.2   209  ALA209      0.2591
     47  O         13.8990   41.4680  135.6470 O.2   209  ALA209     -0.2718
     48  CB        13.9800   38.7430  134.0460 C.3   209  ALA209      0.0304
     49  N         11.8050   40.9210  135.0680 N.am  210  GLU210     -0.1979
     50  CA        11.2300   41.6590  136.1970 C.3   210  GLU210      0.1602
     51  C         11.7890   41.2780  137.5790 C.2   210  GLU210      0.2287
     52  O         11.9630   42.1460  138.4440 O.2   210  GLU210     -0.2864
     53  CB         9.7110   41.5420  136.1890 C.3   210  GLU210      0.0415
     54  CG         9.0630   42.2670  135.0250 C.3   210  GLU210      0.1163
     55  CD         7.5560   42.1290  135.0260 C.2   210  GLU210      0.3649
     56  OE1        6.9470   42.4720  136.0550 O.co2 210  GLU210     -0.2457
     57  OE2        6.9800   41.6730  134.0110 O.co2 210  GLU210     -0.2457
     58  N          7.8260   45.4320  131.3770 N.3   239  VAL239     -0.1231
     59  CA         7.0550   44.2120  131.2650 C.3   239  VAL239      0.1692
     60  C          7.3140   43.6150  129.8900 C.2   239  VAL239      0.2593
     61  O          7.0580   44.2540  128.8580 O.2   239  VAL239     -0.2718
     62  CB         5.5400   44.4880  131.4760 C.3   239  VAL239      0.0266
     63  CG1        4.7230   43.2170  131.2560 C.3   239  VAL239      0.0020
     64  CG2        5.2750   45.0580  132.8850 C.3   239  VAL239      0.0020
     65  N          7.8360   42.3920  129.8860 N.am  240  GLY240     -0.1942
     66  CA         8.2280   41.7050  128.6530 C.3   240  GLY240      0.2014
     67  C          7.1250   41.6830  127.6150 C.2   240  GLY240      0.2638
     68  O          7.3390   42.0560  126.4570 O.2   240  GLY240     -0.2714
     69  N          5.9330   41.2660  128.0330 N.am  241  GLU241     -0.1977
     70  CA         4.8160   41.1310  127.0990 C.3   241  GLU241      0.1602
     71  C          4.3130   42.4910  126.6030 C.2   241  GLU241      0.2287
     72  O          3.5220   42.5540  125.6570 O.2   241  GLU241     -0.2864
     73  CB         3.6860   40.2800  127.7070 C.3   241  GLU241      0.0415
     74  CG         3.0430   40.8830  128.9410 C.3   241  GLU241      0.1163
     75  CD         1.8660   40.0760  129.4770 C.2   241  GLU241      0.3649
     76  OE1        1.7610   38.8610  129.1770 O.co2 241  GLU241     -0.2457
     77  OE2        1.0450   40.6690  130.2150 O.co2 241  GLU241     -0.2457
     78  N          8.7680   44.6910  125.8100 N.3   244  GLY244     -0.1210
     79  CA         9.5790   43.6870  125.1130 C.3   244  GLY244      0.1956
     80  C          8.9920   43.3460  123.7500 C.2   244  GLY244      0.2611
     81  O          9.6830   43.4050  122.7280 O.2   244  GLY244     -0.2717
     82  N          7.7070   42.9920  123.7400 N.am  245  ALA245     -0.1979
     83  CA         7.0160   42.6660  122.4960 C.3   245  ALA245      0.1597
     84  C          6.9950   43.8580  121.5360 C.2   245  ALA245      0.2287
     85  O          7.1380   43.6850  120.3160 O.2   245  ALA245     -0.2864
     86  CB         5.6050   42.1900  122.7770 C.3   245  ALA245      0.0319
     87  N         10.4230   43.8500  119.8930 N.3   248  VAL248     -0.1245
     88  CA        10.4840   42.6900  118.9960 C.3   248  VAL248      0.1561
     89  C          9.7540   42.9460  117.6710 C.2   248  VAL248      0.2260
     90  O         10.2720   42.6340  116.6020 O.2   248  VAL248     -0.2867
     91  CB         9.9440   41.4100  119.6750 C.3   248  VAL248      0.0252
     92  CG1        9.7270   40.2940  118.6500 C.3   248  VAL248      0.0019
     93  CG2       10.8820   40.9690  120.8080 C.3   248  VAL248      0.0019
     94  N         17.5740   36.9150  122.5840 N.3   258  PHE258     -0.1227
     95  CA        16.6450   36.4710  123.6270 C.3   258  PHE258      0.1736
     96  C         17.1050   35.2040  124.3050 C.2   258  PHE258      0.2596
     97  O         17.5360   34.2670  123.6460 O.2   258  PHE258     -0.2718
     98  CB        15.2480   36.2560  123.0330 C.3   258  PHE258      0.0547
     99  CG        14.2870   35.5580  123.9670 C.ar  258  PHE258     -0.0202
    100  CD1       13.5760   36.2890  124.9180 C.ar  258  PHE258     -0.0042
    101  CD2       14.1030   34.1730  123.9040 C.ar  258  PHE258     -0.0042
    102  CE1       12.6990   35.6460  125.7930 C.ar  258  PHE258     -0.0003
    103  CE2       13.2200   33.5180  124.7700 C.ar  258  PHE258     -0.0003
    104  CZ        12.5070   34.2620  125.7160 C.ar  258  PHE258     -0.0000
    105  N         16.9970   35.1820  125.6300 N.am  259  THR259     -0.1939
    106  CA        17.1540   33.9580  126.3910 C.3   259  THR259      0.2028
    107  C         15.9900   33.8760  127.3760 C.2   259  THR259      0.2643
    108  O         15.7380   34.8160  128.1310 O.2   259  THR259     -0.2714
    109  CB        18.5020   33.9240  127.1380 C.3   259  THR259      0.1808
    110  OG1       19.5660   34.0230  126.1820 O.3   259  THR259     -0.2208
    111  CG2       18.6540   32.6240  127.8790 C.3   259  THR259      0.0379
    112  N         15.2780   32.7600  127.3620 N.am  260  GLY260     -0.1939
    113  CA        14.1090   32.6260  128.2320 C.3   260  GLY260      0.2014
    114  C         13.3310   31.3790  127.8890 C.2   260  GLY260      0.2639
    115  O         13.8920   30.4110  127.3690 O.2   260  GLY260     -0.2714
    116  N         12.0380   31.4030  128.1920 N.am  261  SER261     -0.1949
    117  CA        11.1870   30.2370  128.0080 C.3   261  SER261      0.1924
    118  C         10.9490   29.9260  126.5410 C.2   261  SER261      0.2314
    119  O         11.0450   30.8020  125.6780 O.2   261  SER261     -0.2863
    120  CB         9.8440   30.4500  128.7170 C.3   261  SER261      0.2116
    121  OG         9.0630   31.4210  128.0430 O.3   261  SER261     -0.2180
    122  N          7.8310   31.9180  125.1180 N.3   264  VAL264     -0.1245
    123  CA         8.1110   33.2740  124.6710 C.3   264  VAL264      0.1561
    124  C          9.0240   33.2570  123.4350 C.2   264  VAL264      0.2260
    125  O          8.8030   34.0110  122.4900 O.2   264  VAL264     -0.2867
    126  CB         8.7010   34.1160  125.8080 C.3   264  VAL264      0.0252
    127  CG1        9.1350   35.4750  125.2950 C.3   264  VAL264      0.0019
    128  CG2        7.6480   34.2470  126.9270 C.3   264  VAL264      0.0019
    129  N          7.1160   32.8380  120.2070 N.3   267  LYS267     -0.1231
    130  CA         6.4390   34.0770  119.8010 C.3   267  LYS267      0.1693
    131  C          7.4140   35.0700  119.1820 C.2   267  LYS267      0.2591
    132  O          7.1110   35.7100  118.1740 O.2   267  LYS267     -0.2718
    133  CB         5.7310   34.7220  120.9920 C.3   267  LYS267      0.0285
    134  CG         4.5630   33.9130  121.5120 C.3   267  LYS267      0.0035
    135  CD         3.9960   34.5280  122.7940 C.3   267  LYS267      0.0206
    136  CE         2.8420   33.6930  123.3260 C.3   267  LYS267      0.1093
    137  NZ         2.2550   34.3480  124.5390 N.3   267  LYS267     -0.1314
    138  N          8.5780   35.2040  119.8060 N.am  268  ILE268     -0.1980
    139  CA         9.6210   36.1010  119.3100 C.3   268  ILE268      0.1595
    140  C         10.1090   35.6770  117.9240 C.2   268  ILE268      0.2287
    141  O         10.1620   36.4940  117.0040 O.2   268  ILE268     -0.2864
    142  CB        10.7820   36.2320  120.3260 C.3   268  ILE268      0.0276
    143  CG1       10.2760   36.9720  121.5740 C.3   268  ILE268      0.0022
    144  CG2       11.9680   36.9520  119.7000 C.3   268  ILE268      0.0022
    145  CD1       11.3000   37.1390  122.6580 C.3   268  ILE268      0.0001
@<TRIPOS>BOND
     1    90    89    2
     2   141   140    2
     3    89    88    1
     4   140   139    1
     5   132   131    2
     6    92    91    1
     7    88    91    1
     8    88    87    1
     9   131   130    1
    10   131   138   am
    11   139   138    1
    12   139   142    1
    13    91    93    1
    14   144   142    1
    15   130   129    1
    16   130   133    1
    17    85    84    2
    18   142   143    1
    19   133   134    1
    20   134   135    1
    21    84    83    1
    22   143   145    1
    23   125   124    2
    24    83    86    1
    25    83    82    1
    26    94    95    1
    27    81    80    2
    28   135   136    1
    29    98    95    1
    30    98    99    1
    31   136   137    1
    32   124   123    1
    33    95    96    1
    34    97    96    2
    35    82    80   am
    36    80    79    1
    37   101    99   ar
    38   101   103   ar
    39     8     6    1
    40    99   100   ar
    41    96   105   am
    42   123   122    1
    43   123   126    1
    44   103   104   ar
    45     6     5    1
    46   100   102   ar
    47    79    78    1
    48   127   126    1
    49     1     2    1
    50     5     2    1
    51     5     7    1
    52   105   106    1
    53    72    71    2
    54   119   118    2
    55   104   102   ar
    56   126   128    1
    57   110   109    1
    58     2     3    1
    59   106   109    1
    60   106   107    1
    61    68    67    2
    62   118   117    1
    63    71    70    1
    64     4     3    2
    65    70    73    1
    66    70    69    1
    67   109   111    1
    68     3     9   am
    69   112   107   am
    70   112   113    1
    71   115   114    2
    72   107   108    2
    73    67    69   am
    74    67    66    1
    75    73    74    1
    76   114   116   am
    77   114   113    1
    78    39    40    1
    79    39    36    1
    80   117   116    1
    81   117   120    1
    82   121   120    1
    83    35    36    1
    84    40    41    1
    85     9    10    1
    86    66    65    1
    87    61    60    2
    88    36    37    1
    89    74    75    1
    90    76    75   ar
    91    10    13    1
    92    10    11    1
    93    75    77   ar
    94    38    37    2
    95    42    41    1
    96    42    43    1
    97    65    60   am
    98    60    59    1
    99    20    14    1
   100    20    19    1
   101    11    12    2
   102    11    14   am
   103    14    15    1
   104    19    18    1
   105    63    62    1
   106    59    58    1
   107    59    62    1
   108    62    64    1
   109    18    15    1
   110    15    16    1
   111    44    45    1
   112    16    17    2
   113    16    21   am
   114    45    48    1
   115    45    46    1
   116    57    55   ar
   117    21    22    1
   118    46    49   am
   119    46    47    2
   120    54    55    1
   121    54    53    1
   122    55    56   ar
   123    49    50    1
   124    27    29   ar
   125    27    26   ar
   126    22    23    1
   127    22    25    1
   128    29    30   ar
   129    53    50    1
   130    50    51    1
   131    23    24    2
   132    26    25    1
   133    26    28   ar
   134    30    32   ar
   135    30    28   ar
   136    32    34   ar
   137    28    31   ar
   138    51    52    2
   139    34    33   ar
   140    31    33   ar
