@<TRIPOS>MOLECULE
tmp/2ehzA01.pdb
 109 104 0 0 0
SMALL
GASTEIGER

@<TRIPOS>ATOM
      1  N         17.8120   26.2440   21.2170 N.3   151  ILE151     -0.1231
      2  CA        18.8720   26.1070   22.2220 C.3   151  ILE151      0.1692
      3  C         18.8070   27.3440   23.1020 C.2   151  ILE151      0.2592
      4  O         18.7800   28.4710   22.5980 O.2   151  ILE151     -0.2718
      5  CB        20.2790   25.9520   21.6120 C.3   151  ILE151      0.0266
      6  CG1       20.4320   24.5430   21.0330 C.3   151  ILE151      0.0019
      7  CG2       21.3750   26.2170   22.6600 C.3   151  ILE151      0.0020
      8  CD1       21.8620   24.2000   20.6250 C.3   151  ILE151      0.0001
      9  N         18.7410   27.1140   24.4130 N.am  152  VAL152     -0.1966
     10  CA        18.6990   28.1810   25.4100 C.3   152  VAL152      0.1727
     11  C         19.8360   28.0330   26.4140 C.2   152  VAL152      0.2616
     12  O         20.4480   26.9620   26.5550 O.2   152  VAL152     -0.2715
     13  CB        17.3400   28.2420   26.1560 C.3   152  VAL152      0.0290
     14  CG1       16.1960   28.5490   25.1730 C.3   152  VAL152      0.0023
     15  CG2       17.0790   26.9520   26.9640 C.3   152  VAL152      0.0023
     16  N         20.0930   29.1280   27.1180 N.am  153  ARG153     -0.1977
     17  CA        21.1650   29.2010   28.0930 C.3   153  ARG153      0.1597
     18  C         20.8630   28.3900   29.3420 C.2   153  ARG153      0.2287
     19  O         19.7350   28.3980   29.8470 O.2   153  ARG153     -0.2864
     20  CB        21.3860   30.6710   28.4610 C.3   153  ARG153      0.0334
     21  CG        22.4990   30.9380   29.4670 C.3   153  ARG153      0.0492
     22  CD        22.7600   32.4290   29.6110 C.3   153  ARG153      0.2205
     23  NE        21.5560   33.1550   30.0050 N.pl3 153  ARG153     -0.0865
     24  CZ        21.3420   34.4530   29.7950 C.cat 153  ARG153      0.5346
     25  NH1       22.2400   35.2020   29.1660 N.pl3 153  ARG153      0.1354
     26  NH2       20.2130   35.0060   30.2060 N.pl3 153  ARG153      0.1354
     27  N         26.7030   18.8140   24.6520 N.3   187  LEU187     -0.1245
     28  CA        25.3910   19.3790   24.3500 C.3   187  LEU187      0.1561
     29  C         24.3140   18.3300   24.5320 C.2   187  LEU187      0.2260
     30  O         24.4560   17.2010   24.0470 O.2   187  LEU187     -0.2867
     31  CB        25.3450   19.9360   22.9270 C.3   187  LEU187      0.0270
     32  CG        26.3120   21.0780   22.6020 C.3   187  LEU187      0.0019
     33  CD1       26.1100   21.5330   21.1660 C.3   187  LEU187      0.0001
     34  CD2       26.1530   22.2580   23.5650 C.3   187  LEU187      0.0001
     35  N         20.5740   22.3180   25.1030 N.3   201  PHE201     -0.1227
     36  CA        21.4150   23.1890   25.9110 C.3   201  PHE201      0.1736
     37  C         22.7220   22.5290   26.2800 C.2   201  PHE201      0.2596
     38  O         22.8470   21.3020   26.2610 O.2   201  PHE201     -0.2718
     39  CB        20.6870   23.6370   27.2000 C.3   201  PHE201      0.0547
     40  CG        19.8940   22.5400   27.8710 C.ar  201  PHE201     -0.0202
     41  CD1       18.5110   22.4900   27.7370 C.ar  201  PHE201     -0.0042
     42  CD2       20.5250   21.5640   28.6400 C.ar  201  PHE201     -0.0042
     43  CE1       17.7730   21.4740   28.3450 C.ar  201  PHE201     -0.0003
     44  CE2       19.7890   20.5470   29.2540 C.ar  201  PHE201     -0.0003
     45  CZ        18.4120   20.5020   29.0950 C.ar  201  PHE201     -0.0000
     46  N         23.6940   23.3710   26.6100 N.am  202  GLY202     -0.1957
     47  CA        24.8820   22.9650   27.3430 C.3   202  GLY202      0.1869
     48  C         25.0840   24.0040   28.4300 C.2   202  GLY202      0.2309
     49  O         24.2730   24.9150   28.5820 O.2   202  GLY202     -0.2863
     50  N         27.2320   26.5730   28.6310 N.3   204  MET204     -0.1231
     51  CA        28.1350   27.3800   27.8180 C.3   204  MET204      0.1687
     52  C         27.8550   28.8410   28.1280 C.2   204  MET204      0.2434
     53  O         26.7000   29.2090   28.3640 O.2   204  MET204     -0.2733
     54  CB        27.8920   27.1220   26.3230 C.3   204  MET204      0.0400
     55  CG        27.9580   25.6530   25.8930 C.3   204  MET204      0.0596
     56  SD        29.6110   24.9370   26.0090 S.3   204  MET204     -0.1393
     57  CE        30.4310   25.7090   24.6140 C.3   204  MET204      0.0692
     58  N         28.9030   29.6870   28.1320 N.am  205  PRO205     -0.2718
     59  CA        28.6710   31.1110   28.3790 C.3   205  PRO205      0.1535
     60  C         27.8600   31.7390   27.2440 C.2   205  PRO205      0.2598
     61  O         28.0850   31.4250   26.0750 O.2   205  PRO205     -0.2715
     62  CB        30.0850   31.7000   28.4380 C.3   205  PRO205      0.0310
     63  CG        30.9380   30.7460   27.7180 C.3   205  PRO205      0.0237
     64  CD        30.3240   29.3840   27.8950 C.3   205  PRO205      0.0939
     65  N         26.9080   32.5910   27.6020 N.am  206  ALA206     -0.1978
     66  CA        25.9940   33.1830   26.6240 C.3   206  ALA206      0.1597
     67  C         25.4160   34.4900   27.1350 C.2   206  ALA206      0.2287
     68  O         24.9080   34.5520   28.2530 O.2   206  ALA206     -0.2864
     69  CB        24.8660   32.2020   26.2890 C.3   206  ALA206      0.0319
     70  N         22.8520   36.0030   25.8120 N.3   208  LYS208     -0.1231
     71  CA        21.4000   35.9610   25.6310 C.3   208  LYS208      0.1693
     72  C         20.8110   34.6440   26.1290 C.2   208  LYS208      0.2591
     73  O         21.4800   33.6100   26.1330 O.2   208  LYS208     -0.2718
     74  CB        21.0310   36.1530   24.1520 C.3   208  LYS208      0.0285
     75  CG        21.3780   37.5240   23.5650 C.3   208  LYS208      0.0035
     76  CD        20.9210   37.6150   22.1080 C.3   208  LYS208      0.0206
     77  CE        21.4210   38.8780   21.4290 C.3   208  LYS208      0.1093
     78  NZ        20.6070   40.0710   21.7820 N.3   208  LYS208     -0.1314
     79  N         19.5450   34.6950   26.5370 N.am  209  ARG209     -0.1980
     80  CA        18.7710   33.4870   26.8350 C.3   209  ARG209      0.1597
     81  C         18.7100   32.5410   25.6380 C.2   209  ARG209      0.2287
     82  O         18.8140   31.3270   25.7910 O.2   209  ARG209     -0.2864
     83  CB        17.3330   33.8510   27.2160 C.3   209  ARG209      0.0334
     84  CG        17.1890   34.6330   28.5120 C.3   209  ARG209      0.0492
     85  CD        15.7700   35.1580   28.6350 C.3   209  ARG209      0.2205
     86  NE        15.5230   35.7380   29.9520 N.pl3 209  ARG209     -0.0865
     87  CZ        14.4570   36.4660   30.2740 C.cat 209  ARG209      0.5346
     88  NH1       13.5130   36.7320   29.3840 N.pl3 209  ARG209      0.1354
     89  NH2       14.3310   36.9340   31.5070 N.pl3 209  ARG209      0.1354
     90  N         19.9740   31.0750   22.0890 N.3   211  ASN211     -0.1240
     91  CA        21.0640   30.8900   21.1420 C.3   211  ASN211      0.1653
     92  C         20.5200   30.8560   19.7200 C.2   211  ASN211      0.2266
     93  O         20.9710   31.5920   18.8410 O.2   211  ASN211     -0.2867
     94  CB        21.8430   29.6100   21.4300 C.3   211  ASN211      0.1155
     95  CG        22.8940   29.3240   20.3780 C.2   211  ASN211      0.2627
     96  OD1       22.6920   28.5010   19.4810 O.2   211  ASN211     -0.2716
     97  ND2       24.0220   30.0190   20.4710 N.am  211  ASN211     -0.0877
     98  N         26.4540   33.5130   18.6990 N.3   293  GLY293     -0.1210
     99  CA        26.2750   32.5140   19.7530 C.3   293  GLY293      0.1956
    100  C         26.9980   31.2130   19.4630 C.2   293  GLY293      0.2611
    101  O         27.3640   30.4750   20.3780 O.2   293  GLY293     -0.2717
    102  N         27.2140   30.9400   18.1800 N.am  294  LEU294     -0.1979
    103  CA        27.9590   29.7590   17.7640 C.3   294  LEU294      0.1596
    104  C         29.2010   30.1590   16.9680 C.2   294  LEU294      0.2287
    105  O         29.1070   30.5810   15.8130 O.2   294  LEU294     -0.2864
    106  CB        27.0600   28.8080   16.9620 C.3   294  LEU294      0.0297
    107  CG        25.7800   28.3450   17.6690 C.3   294  LEU294      0.0022
    108  CD1       24.7790   27.8030   16.6690 C.3   294  LEU294      0.0001
    109  CD2       26.0720   27.3100   18.7520 C.3   294  LEU294      0.0001
@<TRIPOS>BOND
     1   105   104    2
     2   108   107    1
     3   106   107    1
     4   106   103    1
     5   104   103    1
     6   107   109    1
     7   103   102    1
     8   102   100   am
     9    98    99    1
    10    93    92    2
    11   100    99    1
    12   100   101    2
    13    96    95    2
    14    92    91    1
    15    95    97   am
    16    95    94    1
    17     8     6    1
    18     6     5    1
    19    91    94    1
    20    91    90    1
    21    33    32    1
    22     1     2    1
    23    77    78    1
    24    77    76    1
    25     5     2    1
    26     5     7    1
    27    76    75    1
    28     2     3    1
    29     4     3    2
    30    32    31    1
    31    32    34    1
    32    31    28    1
    33     3     9   am
    34    75    74    1
    35    30    29    2
    36    74    71    1
    37    28    29    1
    38    28    27    1
    39     9    10    1
    40    57    56    1
    41    35    36    1
    42    14    13    1
    43    10    13    1
    44    10    11    1
    45    71    70    1
    46    71    72    1
    47    81    82    2
    48    81    80    1
    49    55    56    1
    50    55    54    1
    51    36    37    1
    52    36    39    1
    53    61    60    2
    54    72    73    2
    55    72    79   am
    56    13    15    1
    57    38    37    2
    58    37    46   am
    59    69    66    1
    60    54    51    1
    61    11    12    2
    62    11    16   am
    63    79    80    1
    64    46    47    1
    65    66    67    1
    66    66    65    1
    67    80    83    1
    68    16    17    1
    69    67    68    2
    70    39    40    1
    71    83    84    1
    72    60    65   am
    73    60    59    1
    74    47    48    1
    75    63    64    1
    76    63    62    1
    77    41    40   ar
    78    41    43   ar
    79    51    52    1
    80    51    50    1
    81    40    42   ar
    82    64    58    1
    83    17    20    1
    84    17    18    1
    85    52    58   am
    86    52    53    2
    87    58    59    1
    88    43    45   ar
    89    59    62    1
    90    48    49    2
    91    20    21    1
    92    84    85    1
    93    85    86    1
    94    42    44   ar
    95    45    44   ar
    96    25    24    1
    97    18    19    2
    98    88    87    1
    99    21    22    1
   100    22    23    1
   101    24    23    2
   102    24    26    1
   103    86    87    2
   104    87    89    1
