@<TRIPOS>MOLECULE
tmp/2ehzA03.pdb
 95 92 0 0 0
SMALL
GASTEIGER

@<TRIPOS>ATOM
      1  N         11.2240   39.7080   22.4340 N.3    13  SER13      -0.1217
      2  CA        11.1350   41.1700   22.3880 C.3    13  SER13       0.1889
      3  C         12.2280   41.7220   21.4920 C.2    13  SER13       0.2288
      4  O         13.3500   41.2010   21.4710 O.2    13  SER13      -0.2866
      5  CB        11.1980   41.8070   23.7740 C.3    13  SER13       0.2089
      6  OG        12.4370   41.5710   24.3880 O.3    13  SER13      -0.2183
      7  N          1.9010   47.4530   21.2980 N.3    39  ASP39      -0.1225
      8  CA         3.1630   46.9750   21.8480 C.3    39  ASP39       0.1805
      9  C          3.6160   45.6050   21.3400 C.2    39  ASP39       0.2597
     10  O          4.6240   45.0820   21.8060 O.2    39  ASP39      -0.2718
     11  CB         3.0900   46.9670   23.3850 C.3    39  ASP39       0.1424
     12  CG         2.0640   45.9700   23.9310 C.2    39  ASP39       0.3668
     13  OD1        1.1820   45.4990   23.1770 O.co2  39  ASP39      -0.2456
     14  OD2        2.1420   45.6650   25.1420 O.co2  39  ASP39      -0.2456
     15  N          2.8730   45.0220   20.4000 N.am   40  ARG40      -0.1979
     16  CA         3.1960   43.6820   19.9080 C.3    40  ARG40       0.1597
     17  C          2.5120   43.3770   18.5870 C.2    40  ARG40       0.2287
     18  O          1.5030   43.9990   18.2330 O.2    40  ARG40      -0.2864
     19  CB         2.8140   42.6140   20.9440 C.3    40  ARG40       0.0334
     20  CG         1.3160   42.3780   21.0950 C.3    40  ARG40       0.0492
     21  CD         0.9950   41.6360   22.3690 C.3    40  ARG40       0.2205
     22  NE         1.1670   42.4950   23.5420 N.pl3  40  ARG40      -0.0865
     23  CZ         1.0510   42.0770   24.7990 C.cat  40  ARG40       0.5346
     24  NH1        0.7670   40.8090   25.0580 N.pl3  40  ARG40       0.1354
     25  NH2        1.2210   42.9310   25.8030 N.pl3  40  ARG40       0.1354
     26  N          7.1330   41.2520   20.8310 N.3    55  HIS55      -0.1226
     27  CA         6.9100   42.4230   21.6760 C.3    55  HIS55       0.1752
     28  C          7.8560   43.5640   21.2930 C.2    55  HIS55       0.2596
     29  O          9.0270   43.3230   20.9900 O.2    55  HIS55      -0.2718
     30  CB         7.1270   42.0540   23.1450 C.3    55  HIS55       0.0759
     31  CG         6.1730   41.0220   23.6640 C.ar   55  HIS55       0.0818
     32  ND1        4.9860   41.3460   24.2840 N.ar   55  HIS55      -0.2268
     33  CD2        6.2320   39.6700   23.6510 C.ar   55  HIS55       0.1154
     34  CE1        4.3620   40.2400   24.6450 C.ar   55  HIS55       0.1986
     35  NE2        5.0970   39.2080   24.2730 N.ar   55  HIS55      -0.2212
     36  N          7.3400   44.7970   21.3330 N.am   56  HIS56      -0.1975
     37  CA         8.0910   46.0300   21.0220 C.3    56  HIS56       0.1656
     38  C          8.9330   46.4900   22.2130 C.2    56  HIS56       0.2291
     39  O          8.9450   45.8370   23.2570 O.2    56  HIS56      -0.2864
     40  CB         7.1230   47.1810   20.6920 C.3    56  HIS56       0.0771
     41  CG         6.3490   47.0150   19.4190 C.ar   56  HIS56       0.0820
     42  ND1        6.1750   45.8020   18.7880 N.ar   56  HIS56      -0.2267
     43  CD2        5.6530   47.9190   18.6890 C.ar   56  HIS56       0.1154
     44  CE1        5.4280   45.9700   17.7120 C.ar   56  HIS56       0.1986
     45  NE2        5.0970   47.2450   17.6290 N.ar   56  HIS56      -0.2212
     46  N         11.5160   36.1530   25.4310 N.3    63  GLU63      -0.1231
     47  CA        10.6660   36.5550   26.5530 C.3    63  GLU63       0.1699
     48  C         10.0530   35.3590   27.2840 C.2    63  GLU63       0.2592
     49  O          9.9850   35.3500   28.5040 O.2    63  GLU63      -0.2718
     50  CB         9.5600   37.5080   26.0850 C.3    63  GLU63       0.0402
     51  CG        10.0590   38.8960   25.7170 C.3    63  GLU63       0.1161
     52  CD        10.6080   39.6820   26.8980 C.2    63  GLU63       0.3649
     53  OE1       10.1260   39.4900   28.0340 O.co2  63  GLU63      -0.2457
     54  OE2       11.5240   40.5030   26.6810 O.co2  63  GLU63      -0.2457
     55  N          9.5900   34.3570   26.5360 N.am   64  TYR64      -0.1976
     56  CA         8.9990   33.1490   27.1390 C.3    64  TYR64       0.1639
     57  C          8.8930   32.0210   26.1280 C.2    64  TYR64       0.2290
     58  O          8.7190   32.2680   24.9280 O.2    64  TYR64      -0.2864
     59  CB         7.6090   33.4320   27.7600 C.3    64  TYR64       0.0560
     60  CG         6.6950   34.2780   26.8960 C.ar   64  TYR64      -0.0198
     61  CD1        5.8760   33.7050   25.9240 C.ar   64  TYR64      -0.0009
     62  CD2        6.6410   35.6590   27.0670 C.ar   64  TYR64      -0.0009
     63  CE1        5.0410   34.4910   25.1290 C.ar   64  TYR64       0.0417
     64  CE2        5.8190   36.4550   26.2800 C.ar   64  TYR64       0.0417
     65  CZ         5.0180   35.8650   25.3150 C.ar   64  TYR64       0.1957
     66  OH         4.2070   36.6570   24.5370 O.3    64  TYR64      -0.2866
     67  N         -4.4440   36.9490   27.5510 N.3    99  GLU99      -0.1231
     68  CA        -3.3290   37.6230   26.8900 C.3    99  GLU99       0.1699
     69  C         -2.5830   36.6620   25.9540 C.2    99  GLU99       0.2592
     70  O         -2.2430   37.0150   24.8270 O.2    99  GLU99      -0.2718
     71  CB        -2.3620   38.2300   27.9110 C.3    99  GLU99       0.0402
     72  CG        -1.2040   38.9640   27.2510 C.3    99  GLU99       0.1161
     73  CD        -0.1620   39.4750   28.2290 C.2    99  GLU99       0.3649
     74  OE1       -0.2360   39.1580   29.4430 O.co2  99  GLU99      -0.2457
     75  OE2        0.7500   40.1930   27.7720 O.co2  99  GLU99      -0.2457
     76  N         -2.3420   35.4440   26.4320 N.am  100  ARG100     -0.1980
     77  CA        -1.6750   34.4130   25.6290 C.3   100  ARG100      0.1597
     78  C         -2.6100   33.6670   24.6770 C.2   100  ARG100      0.2287
     79  O         -2.1410   32.9060   23.8340 O.2   100  ARG100     -0.2864
     80  CB        -0.9790   33.4050   26.5410 C.3   100  ARG100      0.0334
     81  CG         0.0980   33.9990   27.4250 C.3   100  ARG100      0.0492
     82  CD         1.3050   34.5330   26.6470 C.3   100  ARG100      0.2205
     83  NE         2.3590   34.8060   27.6130 N.pl3 100  ARG100     -0.0865
     84  CZ         2.7300   36.0070   28.0490 C.cat 100  ARG100      0.5346
     85  NH1        2.2040   37.1200   27.5460 N.pl3 100  ARG100      0.1354
     86  NH2        3.6670   36.0800   28.9820 N.pl3 100  ARG100      0.1354
     87  N          2.9350   29.9380   34.9870 N.3   107  LYS107     -0.1245
     88  CA         4.2250   30.5540   34.7010 C.3   107  LYS107      0.1561
     89  C          5.2720   30.1520   35.7220 C.2   107  LYS107      0.2260
     90  O          4.9940   30.0770   36.9240 O.2   107  LYS107     -0.2867
     91  CB         4.0920   32.0760   34.6630 C.3   107  LYS107      0.0271
     92  CG         3.3520   32.5840   33.4310 C.3   107  LYS107      0.0035
     93  CD         3.1190   34.0840   33.4620 C.3   107  LYS107      0.0206
     94  CE         2.3240   34.4990   32.2200 C.3   107  LYS107      0.1093
     95  NZ         2.0790   35.9630   32.1930 N.3   107  LYS107     -0.1314
@<TRIPOS>BOND
     1    45    44   ar
     2    45    43   ar
     3    44    42   ar
     4    18    17    2
     5    17    16    1
     6    43    41   ar
     7    42    41   ar
     8    41    40    1
     9    16    15    1
    10    16    19    1
    11    15     9   am
    12    40    37    1
    13    26    27    1
    14    19    20    1
    15    29    28    2
    16    37    36    1
    17    37    38    1
    18    20    21    1
    19    28    36   am
    20    28    27    1
    21     7     8    1
    22     9    10    2
    23     9     8    1
    24     4     3    2
    25     3     2    1
    26    27    30    1
    27     8    11    1
    28    38    39    2
    29    21    22    1
    30     2     1    1
    31     2     5    1
    32    30    31    1
    33    13    12   ar
    34    11    12    1
    35    22    23    2
    36    33    31   ar
    37    33    35   ar
    38    31    32   ar
    39     5     6    1
    40    79    78    2
    41    12    14   ar
    42    35    34   ar
    43    32    34   ar
    44    66    65    1
    45    78    77    1
    46    23    24    1
    47    23    25    1
    48    70    69    2
    49    58    57    2
    50    63    65   ar
    51    63    61   ar
    52    65    64   ar
    53    46    47    1
    54    77    76    1
    55    77    80    1
    56    51    50    1
    57    51    52    1
    58    61    60   ar
    59    69    76   am
    60    69    68    1
    61    50    47    1
    62    57    56    1
    63    64    62   ar
    64    55    56    1
    65    55    48   am
    66    80    81    1
    67    47    48    1
    68    82    81    1
    69    82    83    1
    70    54    52   ar
    71    68    67    1
    72    68    71    1
    73    60    62   ar
    74    60    59    1
    75    52    53   ar
    76    56    59    1
    77    72    71    1
    78    72    73    1
    79    48    49    2
    80    85    84    1
    81    83    84    2
    82    75    73   ar
    83    84    86    1
    84    73    74   ar
    85    95    94    1
    86    94    93    1
    87    92    93    1
    88    92    91    1
    89    91    88    1
    90    88    87    1
    91    88    89    1
    92    89    90    2
