@<TRIPOS>MOLECULE
tmp/2ehzA00.pdb
 140 132 0 0 0
SMALL
GASTEIGER

@<TRIPOS>ATOM
      1  N         12.4040   24.1840   17.4170 N.3   149  HIS149     -0.1241
      2  CA        13.1870   23.9730   18.6390 C.3   149  HIS149      0.1621
      3  C         14.0370   25.1770   18.9560 C.2   149  HIS149      0.2264
      4  O         14.2950   26.0040   18.0830 O.2   149  HIS149     -0.2867
      5  CB        14.0620   22.6970   18.5760 C.3   149  HIS149      0.0745
      6  CG        15.2600   22.7700   17.6710 C.ar  149  HIS149      0.0817
      7  ND1       15.3510   22.0090   16.5280 N.ar  149  HIS149     -0.2268
      8  CD2       16.4390   23.4330   17.7740 C.ar  149  HIS149      0.1154
      9  CE1       16.5210   22.2160   15.9510 C.ar  149  HIS149      0.1986
     10  NE2       17.2010   23.0770   16.6880 N.ar  149  HIS149     -0.2212
     11  N         17.8120   26.2440   21.2170 N.3   151  ILE151     -0.1245
     12  CA        18.8720   26.1070   22.2220 C.3   151  ILE151      0.1561
     13  C         18.8070   27.3440   23.1020 C.2   151  ILE151      0.2260
     14  O         18.7800   28.4710   22.5980 O.2   151  ILE151     -0.2867
     15  CB        20.2790   25.9520   21.6120 C.3   151  ILE151      0.0252
     16  CG1       20.4320   24.5430   21.0330 C.3   151  ILE151      0.0019
     17  CG2       21.3750   26.2170   22.6600 C.3   151  ILE151      0.0019
     18  CD1       21.8620   24.2000   20.6250 C.3   151  ILE151      0.0001
     19  N         26.1050   15.2060   21.9370 N.3   175  TYR175     -0.1241
     20  CA        27.3450   15.6170   21.2920 C.3   175  TYR175      0.1605
     21  C         28.4250   15.8830   22.3040 C.2   175  TYR175      0.2264
     22  O         28.1930   16.5440   23.3190 O.2   175  TYR175     -0.2867
     23  CB        27.1510   16.8910   20.4850 C.3   175  TYR175      0.0534
     24  CG        26.3420   16.7020   19.2270 C.ar  175  TYR175     -0.0201
     25  CD1       24.9550   16.6040   19.2810 C.ar  175  TYR175     -0.0009
     26  CD2       26.9610   16.6350   17.9840 C.ar  175  TYR175     -0.0009
     27  CE1       24.1930   16.4420   18.1200 C.ar  175  TYR175      0.0417
     28  CE2       26.2050   16.4760   16.8100 C.ar  175  TYR175      0.0417
     29  CZ        24.8360   16.3830   16.8960 C.ar  175  TYR175      0.1957
     30  OH        24.0870   16.2410   15.7470 O.3   175  TYR175     -0.2866
     31  N         31.7660   17.6390   21.5580 N.3   177  ILE177     -0.1245
     32  CA        32.4360   18.3460   20.4620 C.3   177  ILE177      0.1561
     33  C         33.7570   18.9570   20.9280 C.2   177  ILE177      0.2260
     34  O         33.7740   19.7360   21.8820 O.2   177  ILE177     -0.2867
     35  CB        31.5180   19.4400   19.8360 C.3   177  ILE177      0.0252
     36  CG1       30.2720   18.7980   19.2160 C.3   177  ILE177      0.0019
     37  CG2       32.2770   20.2800   18.7910 C.3   177  ILE177      0.0019
     38  CD1       29.1560   19.7780   18.8640 C.3   177  ILE177      0.0001
     39  N         26.7030   18.8140   24.6520 N.3   187  LEU187     -0.1245
     40  CA        25.3910   19.3790   24.3500 C.3   187  LEU187      0.1561
     41  C         24.3140   18.3300   24.5320 C.2   187  LEU187      0.2260
     42  O         24.4560   17.2010   24.0470 O.2   187  LEU187     -0.2867
     43  CB        25.3450   19.9360   22.9270 C.3   187  LEU187      0.0270
     44  CG        26.3120   21.0780   22.6020 C.3   187  LEU187      0.0019
     45  CD1       26.1100   21.5330   21.1660 C.3   187  LEU187      0.0001
     46  CD2       26.1530   22.2580   23.5650 C.3   187  LEU187      0.0001
     47  N         20.1170   17.2550   24.3190 N.3   189  PHE189     -0.1241
     48  CA        18.9760   17.4820   23.4220 C.3   189  PHE189      0.1605
     49  C         17.7960   16.6850   23.9210 C.2   189  PHE189      0.2264
     50  O         17.9240   15.4790   24.1470 O.2   189  PHE189     -0.2867
     51  CB        19.3100   17.0290   21.9900 C.3   189  PHE189      0.0534
     52  CG        20.4110   17.8230   21.3480 C.ar  189  PHE189     -0.0203
     53  CD1       21.7400   17.5860   21.6750 C.ar  189  PHE189     -0.0042
     54  CD2       20.1180   18.8300   20.4340 C.ar  189  PHE189     -0.0042
     55  CE1       22.7630   18.3410   21.1000 C.ar  189  PHE189     -0.0003
     56  CE2       21.1400   19.5840   19.8540 C.ar  189  PHE189     -0.0003
     57  CZ        22.4570   19.3390   20.1900 C.ar  189  PHE189     -0.0000
     58  N         14.3300   17.0490   18.4780 N.3   197  HIS197     -0.1241
     59  CA        14.4760   17.7720   19.7380 C.3   197  HIS197      0.1621
     60  C         13.6170   19.0160   19.6970 C.2   197  HIS197      0.2264
     61  O         13.3990   19.5830   18.6290 O.2   197  HIS197     -0.2867
     62  CB        15.9430   18.1130   20.0700 C.3   197  HIS197      0.0745
     63  CG        16.7370   18.6560   18.9140 C.ar  197  HIS197      0.0817
     64  ND1       17.1710   17.8580   17.8800 N.ar  197  HIS197     -0.2268
     65  CD2       17.1990   19.9030   18.6420 C.ar  197  HIS197      0.1154
     66  CE1       17.8490   18.5830   17.0100 C.ar  197  HIS197      0.1986
     67  NE2       17.8880   19.8260   17.4520 N.ar  197  HIS197     -0.2212
     68  N         19.5470   29.9820   19.4830 N.3   212  HIS212     -0.1241
     69  CA        18.8890   29.9440   18.1830 C.3   212  HIS212      0.1621
     70  C         17.5100   29.3280   18.2620 C.2   212  HIS212      0.2264
     71  O         17.2110   28.5610   19.1820 O.2   212  HIS212     -0.2867
     72  CB        19.7420   29.2210   17.1140 C.3   212  HIS212      0.0745
     73  CG        19.7820   27.7300   17.2490 C.ar  212  HIS212      0.0817
     74  ND1       20.7020   27.0830   18.0470 N.ar  212  HIS212     -0.2268
     75  CD2       19.0410   26.7580   16.6600 C.ar  212  HIS212      0.1154
     76  CE1       20.5140   25.7770   17.9500 C.ar  212  HIS212      0.1986
     77  NE2       19.5170   25.5490   17.1110 N.ar  212  HIS212     -0.2212
     78  N         22.8170   17.6400   10.4830 N.3   244  HIS244     -0.1241
     79  CA        23.0110   17.1970   11.8570 C.3   244  HIS244      0.1621
     80  C         23.0370   15.6800   11.9890 C.2   244  HIS244      0.2264
     81  O         22.2210   14.9940   11.3800 O.2   244  HIS244     -0.2867
     82  CB        21.8800   17.7130   12.7360 C.3   244  HIS244      0.0745
     83  CG        21.9140   19.1890   12.9720 C.ar  244  HIS244      0.0817
     84  ND1       23.0170   19.8400   13.4920 N.ar  244  HIS244     -0.2268
     85  CD2       20.9600   20.1350   12.8060 C.ar  244  HIS244      0.1154
     86  CE1       22.7420   21.1250   13.6170 C.ar  244  HIS244      0.1986
     87  NE2       21.5000   21.3310   13.2170 N.ar  244  HIS244     -0.2212
     88  N         22.2090   14.0370   14.7860 N.3   246  ASN246     -0.1240
     89  CA        21.0270   13.5830   15.5240 C.3   246  ASN246      0.1653
     90  C         19.7340   13.5750   14.7140 C.2   246  ASN246      0.2266
     91  O         19.1220   12.5230   14.5520 O.2   246  ASN246     -0.2867
     92  CB        20.8580   14.2600   16.9140 C.3   246  ASN246      0.1155
     93  CG        20.7350   15.7870   16.8660 C.2   246  ASN246      0.2627
     94  OD1       20.6880   16.4190   15.8040 O.2   246  ASN246     -0.2716
     95  ND2       20.6720   16.3890   18.0530 N.am  246  ASN246     -0.0877
     96  N         22.6290   28.4000    9.8390 N.3   253  TYR253     -0.1241
     97  CA        22.3130   29.3350   10.9110 C.3   253  TYR253      0.1605
     98  C         22.6450   30.7570   10.4650 C.2   253  TYR253      0.2264
     99  O         23.8030   31.0530   10.1440 O.2   253  TYR253     -0.2867
    100  CB        23.1300   29.0200   12.1550 C.3   253  TYR253      0.0534
    101  CG        22.9220   27.6620   12.8020 C.ar  253  TYR253     -0.0201
    102  CD1       23.3680   26.4810   12.1920 C.ar  253  TYR253     -0.0009
    103  CD2       22.3440   27.5640   14.0730 C.ar  253  TYR253     -0.0009
    104  CE1       23.2190   25.2480   12.8240 C.ar  253  TYR253      0.0417
    105  CE2       22.1820   26.3370   14.7040 C.ar  253  TYR253      0.0417
    106  CZ        22.6350   25.1880   14.0790 C.ar  253  TYR253      0.1957
    107  OH        22.5190   23.9580   14.6920 O.3   253  TYR253     -0.2866
    108  N         17.7230   29.1990   12.5950 N.3   263  GLU263     -0.1245
    109  CA        18.2120   28.0060   11.9240 C.3   263  GLU263      0.1567
    110  C         17.1050   27.4830   10.9930 C.2   263  GLU263      0.2260
    111  O         16.3010   26.6410   11.4040 O.2   263  GLU263     -0.2867
    112  CB        18.6280   26.9310   12.9470 C.3   263  GLU263      0.0388
    113  CG        19.2250   25.6830   12.2980 C.3   263  GLU263      0.1160
    114  CD        19.4540   24.5180   13.2470 C.2   263  GLU263      0.3649
    115  OE1       18.9630   24.5450   14.3900 O.co2 263  GLU263     -0.2457
    116  OE2       20.1220   23.5480   12.8100 O.co2 263  GLU263     -0.2457
    117  N         28.8760   16.5990   13.4530 N.3   281  ASP281     -0.1239
    118  CA        27.7710   16.4450   12.5130 C.3   281  ASP281      0.1674
    119  C         28.1970   15.5900   11.3020 C.2   281  ASP281      0.2266
    120  O         29.3580   15.1850   11.1870 O.2   281  ASP281     -0.2867
    121  CB        27.2240   17.8310   12.1080 C.3   281  ASP281      0.1410
    122  CG        26.0900   18.3120   13.0230 C.2   281  ASP281      0.3668
    123  OD1       25.5020   17.4870   13.7630 O.co2 281  ASP281     -0.2456
    124  OD2       25.7430   19.5110   12.9730 O.co2 281  ASP281     -0.2456
    125  N         27.2140   30.9400   18.1800 N.3   294  LEU294     -0.1245
    126  CA        27.9590   29.7590   17.7640 C.3   294  LEU294      0.1561
    127  C         29.2010   30.1590   16.9680 C.2   294  LEU294      0.2260
    128  O         29.1070   30.5810   15.8130 O.2   294  LEU294     -0.2867
    129  CB        27.0600   28.8080   16.9620 C.3   294  LEU294      0.0270
    130  CG        25.7800   28.3450   17.6690 C.3   294  LEU294      0.0019
    131  CD1       24.7790   27.8030   16.6690 C.3   294  LEU294      0.0001
    132  CD2       26.0720   27.3100   18.7520 C.3   294  LEU294      0.0001
    133  N         30.7150   22.5330   13.8600 N.3   298  LEU298     -0.1245
    134  CA        29.9990   21.3730   14.3890 C.3   298  LEU298      0.1561
    135  C         30.4380   20.0400   13.7840 C.2   298  LEU298      0.2260
    136  O         30.0130   18.9820   14.2520 O.2   298  LEU298     -0.2867
    137  CB        28.4830   21.5520   14.2500 C.3   298  LEU298      0.0270
    138  CG        27.8210   22.7030   15.0130 C.3   298  LEU298      0.0019
    139  CD1       26.3120   22.6470   14.8290 C.3   298  LEU298      0.0001
    140  CD2       28.1750   22.6830   16.4990 C.3   298  LEU298      0.0001
@<TRIPOS>BOND
     1    96    97    1
     2    99    98    2
     3    98    97    1
     4    78    79    1
     5    97   100    1
     6   110   111    2
     7   110   109    1
     8   120   119    2
     9   119   118    1
    10    81    80    2
    11    79    80    1
    12    79    82    1
    13   109   108    1
    14   109   112    1
    15   121   118    1
    16   121   122    1
    17   100   101    1
    18   102   101   ar
    19   102   104   ar
    20   113   112    1
    21   113   114    1
    22   118   117    1
    23    82    83    1
    24   101   103   ar
    25    85    83   ar
    26    85    87   ar
    27   116   114   ar
    28   104   106   ar
    29    83    84   ar
    30   124   122   ar
    31   122   123   ar
    32    87    86   ar
    33   114   115   ar
    34    84    86   ar
    35   135   136    2
    36   135   134    1
    37   133   134    1
    38   103   105   ar
    39   106   107    1
    40   106   105   ar
    41   137   134    1
    42   137   138    1
    43    91    90    2
    44    90    89    1
    45    88    89    1
    46   139   138    1
    47   138   140    1
    48    89    92    1
    49    30    29    1
    50    94    93    2
    51   128   127    2
    52     9     7   ar
    53     9    10   ar
    54     7     6   ar
    55    75    77   ar
    56    75    73   ar
    57   131   130    1
    58    10     8   ar
    59    28    29   ar
    60    28    26   ar
    61    93    92    1
    62    93    95   am
    63    29    27   ar
    64   129   130    1
    65   129   126    1
    66   127   126    1
    67    66    67   ar
    68    66    64   ar
    69    77    76   ar
    70    72    73    1
    71    72    69    1
    72    73    74   ar
    73     1     2    1
    74    67    65   ar
    75   130   132    1
    76     6     8   ar
    77     6     5    1
    78   126   125    1
    79    64    63   ar
    80    76    74   ar
    81    26    24   ar
    82     4     3    2
    83    27    25   ar
    84    69    70    1
    85    69    68    1
    86    70    71    2
    87    58    59    1
    88     5     2    1
    89    61    60    2
    90     2     3    1
    91    65    63   ar
    92    37    35    1
    93    38    36    1
    94    63    62    1
    95    36    35    1
    96    24    25   ar
    97    24    23    1
    98    60    59    1
    99    59    62    1
   100    35    32    1
   101    56    57   ar
   102    56    54   ar
   103    57    55   ar
   104    54    52   ar
   105    32    33    1
   106    32    31    1
   107    23    20    1
   108    18    16    1
   109    33    34    2
   110    16    15    1
   111    55    53   ar
   112    45    44    1
   113    11    12    1
   114    20    19    1
   115    20    21    1
   116    52    53   ar
   117    52    51    1
   118    15    12    1
   119    15    17    1
   120    51    48    1
   121    12    13    1
   122    21    22    2
   123    14    13    2
   124    44    43    1
   125    44    46    1
   126    43    40    1
   127    48    49    1
   128    48    47    1
   129    49    50    2
   130    42    41    2
   131    40    41    1
   132    40    39    1
