@<TRIPOS>MOLECULE
tmp/2ei0A01.pdb
 109 107 0 0 0
SMALL
GASTEIGER

@<TRIPOS>ATOM
      1  N         17.6680   26.5010   21.3180 N.3   150  ILE150     -0.1245
      2  CA        18.7830   26.2570   22.2350 C.3   150  ILE150      0.1561
      3  C         18.7890   27.4690   23.1560 C.2   150  ILE150      0.2260
      4  O         18.8070   28.6040   22.6780 O.2   150  ILE150     -0.2867
      5  CB        20.1300   26.1320   21.4910 C.3   150  ILE150      0.0252
      6  CG1       20.3140   24.7290   20.9040 C.3   150  ILE150      0.0019
      7  CG2       21.3130   26.4140   22.4430 C.3   150  ILE150      0.0019
      8  CD1       19.1220   24.1640   20.1030 C.3   150  ILE150      0.0001
      9  N         26.9280   18.5950   24.6360 N.3   181  LEU181     -0.1245
     10  CA        25.6780   19.2730   24.2740 C.3   181  LEU181      0.1561
     11  C         24.5310   18.2950   24.4280 C.2   181  LEU181      0.2260
     12  O         24.5990   17.1880   23.8980 O.2   181  LEU181     -0.2867
     13  CB        25.7320   19.7720   22.8250 C.3   181  LEU181      0.0270
     14  CG        27.0110   20.5180   22.4160 C.3   181  LEU181      0.0019
     15  CD1       26.9510   20.8790   20.9450 C.3   181  LEU181      0.0001
     16  CD2       27.2340   21.7600   23.2500 C.3   181  LEU181      0.0001
     17  N         20.3300   17.3090   24.1950 N.3   183  PHE183     -0.1241
     18  CA        19.1970   17.5720   23.2990 C.3   183  PHE183      0.1605
     19  C         18.0110   16.7690   23.7850 C.2   183  PHE183      0.2264
     20  O         18.1400   15.5600   24.0020 O.2   183  PHE183     -0.2867
     21  CB        19.5220   17.1390   21.8650 C.3   183  PHE183      0.0534
     22  CG        20.6610   17.8950   21.2310 C.ar  183  PHE183     -0.0203
     23  CD1       21.9890   17.5710   21.5410 C.ar  183  PHE183     -0.0042
     24  CD2       20.4160   18.8910   20.2820 C.ar  183  PHE183     -0.0042
     25  CE1       23.0460   18.2590   20.9500 C.ar  183  PHE183     -0.0003
     26  CE2       21.4800   19.5860   19.7000 C.ar  183  PHE183     -0.0003
     27  CZ        22.7860   19.2580   20.0260 C.ar  183  PHE183     -0.0000
     28  N         17.4010   22.2900   23.6580 N.3   194  ALA194     -0.1231
     29  CA        18.7680   21.8030   23.8030 C.3   194  ALA194      0.1694
     30  C         19.6140   22.8370   24.5070 C.2   194  ALA194      0.2592
     31  O         19.2560   24.0110   24.5630 O.2   194  ALA194     -0.2718
     32  CB        19.3710   21.4300   22.4370 C.3   194  ALA194      0.0304
     33  N         20.7310   22.3860   25.0680 N.am  195  PHE195     -0.1962
     34  CA        21.5680   23.2720   25.8670 C.3   195  PHE195      0.1771
     35  C         22.8920   22.6320   26.2120 C.2   195  PHE195      0.2620
     36  O         23.0510   21.4010   26.1930 O.2   195  PHE195     -0.2715
     37  CB        20.8420   23.6850   27.1590 C.3   195  PHE195      0.0574
     38  CG        20.0760   22.5600   27.8190 C.ar  195  PHE195     -0.0200
     39  CD1       20.7430   21.5880   28.5680 C.ar  195  PHE195     -0.0042
     40  CD2       18.6830   22.4780   27.6910 C.ar  195  PHE195     -0.0042
     41  CE1       20.0310   20.5440   29.1830 C.ar  195  PHE195     -0.0003
     42  CE2       17.9680   21.4330   28.3010 C.ar  195  PHE195     -0.0003
     43  CZ        18.6430   20.4740   29.0370 C.ar  195  PHE195     -0.0000
     44  N         23.8390   23.4900   26.5560 N.am  196  GLY196     -0.1954
     45  CA        25.1000   23.0460   27.1340 C.3   196  GLY196      0.1869
     46  C         25.4400   23.9820   28.2720 C.2   196  GLY196      0.2309
     47  O         24.6120   24.8000   28.6720 O.2   196  GLY196     -0.2863
     48  N         27.8960   26.2780   28.2180 N.3   198  MET198     -0.1231
     49  CA        28.6990   27.4100   27.7380 C.3   198  MET198      0.1687
     50  C         28.0920   28.7510   28.1650 C.2   198  MET198      0.2434
     51  O         26.8690   28.8550   28.3410 O.2   198  MET198     -0.2733
     52  CB        28.8470   27.3610   26.2160 C.3   198  MET198      0.0400
     53  CG        27.5460   27.5370   25.4400 C.3   198  MET198      0.0596
     54  SD        26.5530   26.0330   25.4290 S.3   198  MET198     -0.1393
     55  CE        27.5450   25.0180   24.3330 C.3   198  MET198      0.0692
     56  N         28.9420   29.7830   28.3300 N.am  199  PRO199     -0.2718
     57  CA        28.4340   31.1190   28.6380 C.3   199  PRO199      0.1535
     58  C         27.6910   31.7060   27.4400 C.2   199  PRO199      0.2598
     59  O         28.0070   31.3800   26.3010 O.2   199  PRO199     -0.2715
     60  CB        29.7110   31.9230   28.9300 C.3   199  PRO199      0.0310
     61  CG        30.7760   31.2170   28.1370 C.3   199  PRO199      0.0237
     62  CD        30.4160   29.7570   28.2500 C.3   199  PRO199      0.0939
     63  N         26.7150   32.5650   27.7070 N.am  200  ALA200     -0.1978
     64  CA        25.9390   33.2090   26.6490 C.3   200  ALA200      0.1597
     65  C         25.4010   34.5450   27.1380 C.2   200  ALA200      0.2287
     66  O         24.8600   34.6270   28.2330 O.2   200  ALA200     -0.2864
     67  CB        24.7900   32.3060   26.2210 C.3   200  ALA200      0.0319
     68  N         20.1000   31.1420   22.0150 N.3   205  ASN205     -0.1225
     69  CA        21.1670   30.9740   21.0390 C.3   205  ASN205      0.1785
     70  C         20.6100   30.9430   19.6280 C.2   205  ASN205      0.2597
     71  O         21.0580   31.6830   18.7500 O.2   205  ASN205     -0.2718
     72  CB        21.9680   29.6950   21.2800 C.3   205  ASN205      0.1169
     73  CG        23.0060   29.4590   20.1980 C.2   205  ASN205      0.2627
     74  OD1       22.8070   28.6360   19.2920 O.2   205  ASN205     -0.2716
     75  ND2       24.1110   30.2010   20.2630 N.am  205  ASN205     -0.0877
     76  N         19.6420   30.0580   19.4070 N.am  206  HIS206     -0.1975
     77  CA        18.9850   29.9870   18.1140 C.3   206  HIS206      0.1656
     78  C         17.6240   29.3540   18.1900 C.2   206  HIS206      0.2291
     79  O         17.3160   28.6070   19.1300 O.2   206  HIS206     -0.2864
     80  CB        19.8480   29.2940   17.0270 C.3   206  HIS206      0.0771
     81  CG        19.9220   27.7950   17.1320 C.ar  206  HIS206      0.0820
     82  ND1       20.8870   27.1470   17.8760 N.ar  206  HIS206     -0.2267
     83  CD2       19.1950   26.8200   16.5330 C.ar  206  HIS206      0.1154
     84  CE1       20.7240   25.8420   17.7610 C.ar  206  HIS206      0.1986
     85  NE2       19.7100   25.6160   16.9440 N.ar  206  HIS206     -0.2212
     86  N         22.6550   28.4730    9.5810 N.3   247  TYR247     -0.1241
     87  CA        22.3380   29.4130   10.6640 C.3   247  TYR247      0.1605
     88  C         22.6350   30.8310   10.2090 C.2   247  TYR247      0.2264
     89  O         23.7540   31.1140    9.7610 O.2   247  TYR247     -0.2867
     90  CB        23.1690   29.1290   11.9170 C.3   247  TYR247      0.0534
     91  CG        22.9750   27.7730   12.5670 C.ar  247  TYR247     -0.0201
     92  CD1       23.3620   26.5820   11.9230 C.ar  247  TYR247     -0.0009
     93  CD2       22.4520   27.6880   13.8570 C.ar  247  TYR247     -0.0009
     94  CE1       23.1860   25.3490   12.5440 C.ar  247  TYR247      0.0417
     95  CE2       22.2840   26.4640   14.4860 C.ar  247  TYR247      0.0417
     96  CZ        22.6670   25.3030   13.8270 C.ar  247  TYR247      0.1957
     97  OH        22.5070   24.0940   14.4700 O.3   247  TYR247     -0.2866
     98  N         29.0390   34.7010   16.7480 N.3   286  TYR286     -0.1241
     99  CA        27.6940   34.2450   17.1160 C.3   286  TYR286      0.1605
    100  C         27.7270   33.0320   18.0530 C.2   286  TYR286      0.2264
    101  O         26.6900   32.4200   18.3400 O.2   286  TYR286     -0.2867
    102  CB        26.8640   33.9370   15.8600 C.3   286  TYR286      0.0534
    103  CG        26.5310   35.1590   15.0420 C.ar  286  TYR286     -0.0201
    104  CD1       27.2960   35.5080   13.9310 C.ar  286  TYR286     -0.0009
    105  CD2       25.4560   35.9790   15.3900 C.ar  286  TYR286     -0.0009
    106  CE1       26.9970   36.6440   13.1820 C.ar  286  TYR286      0.0417
    107  CE2       25.1460   37.1120   14.6510 C.ar  286  TYR286      0.0417
    108  CZ        25.9200   37.4420   13.5490 C.ar  286  TYR286      0.1957
    109  OH        25.6180   38.5760   12.8230 O.3   286  TYR286     -0.2866
@<TRIPOS>BOND
     1    86    87    1
     2    89    88    2
     3    88    87    1
     4    87    90    1
     5    90    91    1
     6    92    94   ar
     7    92    91   ar
     8    94    96   ar
     9    91    93   ar
    10   109   108    1
    11   106   108   ar
    12   106   104   ar
    13   108   107   ar
    14    96    97    1
    15    96    95   ar
    16    93    95   ar
    17   104   103   ar
    18   107   105   ar
    19   103   105   ar
    20   103   102    1
    21   102    99    1
    22    83    85   ar
    23    83    81   ar
    24    98    99    1
    25    85    84   ar
    26    80    81    1
    27    80    77    1
    28    99   100    1
    29    81    82   ar
    30    84    82   ar
    31   100   101    2
    32    77    78    1
    33    77    76    1
    34    78    79    2
    35    71    70    2
    36    74    73    2
    37    76    70   am
    38    70    69    1
    39    26    27   ar
    40    26    24   ar
    41    27    25   ar
    42     8     6    1
    43    73    75   am
    44    73    72    1
    45    24    22   ar
    46     6     5    1
    47    15    14    1
    48    25    23   ar
    49    69    72    1
    50    69    68    1
    51    22    23   ar
    52    22    21    1
    53     1     2    1
    54     5     2    1
    55     5     7    1
    56    21    18    1
    57     2     3    1
    58    14    13    1
    59    14    16    1
    60    32    29    1
    61     4     3    2
    62    13    10    1
    63    18    19    1
    64    18    17    1
    65    28    29    1
    66    19    20    2
    67    29    30    1
    68    12    11    2
    69    10    11    1
    70    10     9    1
    71    55    54    1
    72    30    31    2
    73    30    33   am
    74    33    34    1
    75    54    53    1
    76    53    52    1
    77    34    35    1
    78    34    37    1
    79    36    35    2
    80    35    44   am
    81    52    49    1
    82    67    64    1
    83    59    58    2
    84    44    45    1
    85    64    65    1
    86    64    63    1
    87    45    46    1
    88    65    66    2
    89    37    38    1
    90    58    63   am
    91    58    57    1
    92    40    38   ar
    93    40    42   ar
    94    49    50    1
    95    49    48    1
    96    38    39   ar
    97    61    62    1
    98    61    60    1
    99    50    56   am
   100    50    51    2
   101    62    56    1
   102    46    47    2
   103    42    43   ar
   104    56    57    1
   105    39    41   ar
   106    57    60    1
   107    43    41   ar
