@<TRIPOS>MOLECULE
tmp/2ei0A02.pdb
 90 88 0 0 0
SMALL
GASTEIGER

@<TRIPOS>ATOM
      1  N          4.3380   17.5620   28.7980 N.3     3  VAL3       -0.1245
      2  CA         4.5360   18.4940   27.6660 C.3     3  VAL3        0.1561
      3  C          4.5710   17.7330   26.3370 C.2     3  VAL3        0.2260
      4  O          5.2520   16.7020   26.2220 O.2     3  VAL3       -0.2867
      5  CB         5.7910   19.3960   27.8320 C.3     3  VAL3        0.0252
      6  CG1        6.1220   20.1310   26.5110 C.3     3  VAL3        0.0019
      7  CG2        5.5660   20.3950   28.9740 C.3     3  VAL3        0.0019
      8  N          8.3660   15.9910   31.0960 N.3   167  GLY167     -0.1210
      9  CA         8.0750   14.8880   30.1850 C.3   167  GLY167      0.1956
     10  C          8.9950   14.7600   28.9760 C.2   167  GLY167      0.2612
     11  O          8.6980   13.9740   28.0570 O.2   167  GLY167     -0.2717
     12  N         10.0880   15.5330   28.9610 N.am  168  PHE168     -0.1962
     13  CA        11.0820   15.4300   27.8850 C.3   168  PHE168      0.1771
     14  C         12.0130   14.2470   28.0980 C.2   168  PHE168      0.2619
     15  O         12.2110   13.7910   29.2280 O.2   168  PHE168     -0.2715
     16  CB        11.9520   16.6830   27.8100 C.3   168  PHE168      0.0574
     17  CG        11.2370   17.9200   27.3760 C.ar  168  PHE168     -0.0200
     18  CD1       10.2930   18.5530   28.1990 C.ar  168  PHE168     -0.0042
     19  CD2       11.5560   18.4990   26.1510 C.ar  168  PHE168     -0.0042
     20  CE1        9.6620   19.7420   27.7920 C.ar  168  PHE168     -0.0003
     21  CE2       10.9440   19.6820   25.7330 C.ar  168  PHE168     -0.0003
     22  CZ         9.9960   20.3200   26.5590 C.ar  168  PHE168     -0.0000
     23  N         12.6270   13.8030   27.0070 N.am  169  ARG169     -0.1977
     24  CA        13.5930   12.7150   27.0310 C.3   169  ARG169      0.1597
     25  C         14.8200   13.1410   26.2270 C.2   169  ARG169      0.2287
     26  O         14.6910   13.8190   25.2040 O.2   169  ARG169     -0.2864
     27  CB        12.9520   11.4880   26.3850 C.3   169  ARG169      0.0334
     28  CG        13.8990   10.3390   26.1210 C.3   169  ARG169      0.0492
     29  CD        13.8550    9.3400   27.2460 C.3   169  ARG169      0.2205
     30  NE        14.7310    8.2020   26.9650 N.pl3 169  ARG169     -0.0865
     31  CZ        14.8060    7.1150   27.7260 C.cat 169  ARG169      0.5346
     32  NH1       14.0570    7.0140   28.8150 N.pl3 169  ARG169      0.1354
     33  NH2       15.6300    6.1310   27.3920 N.pl3 169  ARG169      0.1354
     34  N         13.6690   15.8340   23.5510 N.3   185  HIS185     -0.1226
     35  CA        12.4430   15.8080   22.7330 C.3   185  HIS185      0.1752
     36  C         11.2030   15.5900   23.5960 C.2   185  HIS185      0.2596
     37  O         11.2930   15.0340   24.6990 O.2   185  HIS185     -0.2718
     38  CB        12.5320   14.7390   21.6300 C.3   185  HIS185      0.0759
     39  CG        12.7280   13.3430   22.1470 C.ar  185  HIS185      0.0818
     40  ND1       13.9740   12.7780   22.3020 N.ar  185  HIS185     -0.2268
     41  CD2       11.8340   12.3910   22.5140 C.ar  185  HIS185      0.1154
     42  CE1       13.8430   11.5400   22.7510 C.ar  185  HIS185      0.1986
     43  NE2       12.5570   11.2840   22.8970 N.ar  185  HIS185     -0.2212
     44  N         10.0600   16.0670   23.1080 N.am  186  CYS186     -0.1956
     45  CA         8.7750   15.8400   23.7680 C.3   186  CYS186      0.1843
     46  C          7.7060   15.3880   22.7730 C.2   186  CYS186      0.2625
     47  O          6.5180   15.3800   23.0850 O.2   186  CYS186     -0.2714
     48  CB         8.3200   17.1100   24.4790 C.3   186  CYS186      0.0997
     49  SG         8.1700   18.5390   23.3880 S.3   186  CYS186     -0.0797
     50  N          8.1530   15.0280   21.5700 N.am  187  ASN187     -0.1958
     51  CA         7.2870   14.5600   20.4940 C.3   187  ASN187      0.1819
     52  C          8.2030   14.0730   19.3610 C.2   187  ASN187      0.2621
     53  O          9.4240   13.9220   19.5810 O.2   187  ASN187     -0.2715
     54  CB         6.3370   15.6780   20.0390 C.3   187  ASN187      0.1195
     55  CG         7.0840   16.9480   19.6030 C.2   187  ASN187      0.2630
     56  OD1        8.1370   16.8900   18.9570 O.2   187  ASN187     -0.2716
     57  ND2        6.5350   18.1010   19.9660 N.am  187  ASN187     -0.0877
     58  N          7.6350   13.8620   18.1660 N.am  188  ALA188     -0.1977
     59  CA         8.4190   13.3240   17.0450 C.3   188  ALA188      0.1597
     60  C          9.5340   14.2330   16.5420 C.2   188  ALA188      0.2287
     61  O         10.4550   13.7540   15.8840 O.2   188  ALA188     -0.2864
     62  CB         7.5060   12.9220   15.8750 C.3   188  ALA188      0.0319
     63  N         12.7170   11.6120   12.8130 N.3   264  THR264     -0.1203
     64  CA        11.9070   11.3490   13.9940 C.3   264  THR264      0.1994
     65  C         12.7950   11.1440   15.2270 C.2   264  THR264      0.2618
     66  O         13.8200   10.4690   15.1560 O.2   264  THR264     -0.2717
     67  CB        11.0700   10.0980   13.7580 C.3   264  THR264      0.1784
     68  OG1       10.2600   10.3070   12.5920 O.3   264  THR264     -0.2211
     69  CG2       10.1640    9.7690   14.9500 C.3   264  THR264      0.0376
     70  N         12.3680   11.7100   16.3580 N.am  265  ALA265     -0.1965
     71  CA        13.0580   11.5550   17.6360 C.3   265  ALA265      0.1728
     72  C         13.2070   10.0780   17.9930 C.2   265  ALA265      0.2616
     73  O         12.3280    9.2690   17.6810 O.2   265  ALA265     -0.2715
     74  CB        12.2650   12.2700   18.7240 C.3   265  ALA265      0.0334
     75  N         14.3080    9.7310   18.6570 N.am  266  ILE266     -0.1963
     76  CA        14.4430    8.3660   19.1870 C.3   266  ILE266      0.1727
     77  C         14.7350    8.3700   20.6670 C.2   266  ILE266      0.2616
     78  O         15.4540    9.2450   21.1460 O.2   266  ILE266     -0.2715
     79  CB        15.5030    7.5400   18.4380 C.3   266  ILE266      0.0290
     80  CG1       16.8890    8.1860   18.5410 C.3   266  ILE266      0.0022
     81  CG2       15.0850    7.3110   16.9760 C.3   266  ILE266      0.0023
     82  CD1       17.9930    7.2830   18.0240 C.3   266  ILE266      0.0001
     83  N         14.1810    7.3860   21.3880 N.am  267  ASP267     -0.1971
     84  CA        14.4060    7.2820   22.8290 C.3   267  ASP267      0.1709
     85  C         15.7090    6.5720   23.1600 C.2   267  ASP267      0.2293
     86  O         16.1470    6.6050   24.3180 O.2   267  ASP267     -0.2864
     87  CB        13.2470    6.5460   23.5310 C.3   267  ASP267      0.1436
     88  CG        12.0480    7.4440   23.8300 C.2   267  ASP267      0.3671
     89  OD1       12.0520    8.6400   23.4760 O.co2 267  ASP267     -0.2456
     90  OD2       11.0800    6.9270   24.4300 O.co2 267  ASP267     -0.2456
@<TRIPOS>BOND
     1    68    67    1
     2    63    64    1
     3    67    64    1
     4    67    69    1
     5    64    65    1
     6    66    65    2
     7    65    70   am
     8    62    59    1
     9    61    60    2
    10    70    71    1
    11    60    59    1
    12    81    79    1
    13    59    58    1
    14    71    72    1
    15    71    74    1
    16    73    72    2
    17    72    75   am
    18    82    80    1
    19    58    52   am
    20    79    80    1
    21    79    76    1
    22    75    76    1
    23    56    55    2
    24    76    77    1
    25    52    53    2
    26    52    51    1
    27    55    57   am
    28    55    54    1
    29    54    51    1
    30    51    50    1
    31    77    78    2
    32    77    83   am
    33    83    84    1
    34    50    46   am
    35    38    39    1
    36    38    35    1
    37    39    40   ar
    38    39    41   ar
    39    40    42   ar
    40    41    43   ar
    41    35    34    1
    42    35    36    1
    43    42    43   ar
    44    46    47    2
    45    46    45    1
    46    84    85    1
    47    84    87    1
    48    44    36   am
    49    44    45    1
    50    85    86    2
    51    49    48    1
    52    89    88   ar
    53    87    88    1
    54    36    37    2
    55    45    48    1
    56    88    90   ar
    57    26    25    2
    58    21    19   ar
    59    21    22   ar
    60    28    27    1
    61    28    29    1
    62    19    17   ar
    63     4     3    2
    64    25    24    1
    65     3     2    1
    66    27    24    1
    67     6     5    1
    68    22    20   ar
    69    30    29    1
    70    30    31    2
    71    23    24    1
    72    23    14   am
    73    17    16    1
    74    17    18   ar
    75    33    31    1
    76     2     5    1
    77     2     1    1
    78    31    32    1
    79    20    18   ar
    80    16    13    1
    81     5     7    1
    82    13    14    1
    83    13    12    1
    84    11    10    2
    85    14    15    2
    86    12    10   am
    87    10     9    1
    88     9     8    1
