@<TRIPOS>MOLECULE
tmp/2ei0A00.pdb
 136 129 0 0 0
SMALL
GASTEIGER

@<TRIPOS>ATOM
      1  N         12.5410   24.2090   17.2780 N.3   148  HIS148     -0.1241
      2  CA        13.3290   24.0110   18.5050 C.3   148  HIS148      0.1621
      3  C         14.1310   25.2380   18.8830 C.2   148  HIS148      0.2264
      4  O         14.4170   26.0770   18.0340 O.2   148  HIS148     -0.2867
      5  CB        14.2240   22.7530   18.4530 C.3   148  HIS148      0.0745
      6  CG        15.4110   22.8310   17.5330 C.ar  148  HIS148      0.0817
      7  ND1       15.5300   22.0220   16.4220 N.ar  148  HIS148     -0.2268
      8  CD2       16.5730   23.5320   17.6120 C.ar  148  HIS148      0.1154
      9  CE1       16.6920   22.2500   15.8320 C.ar  148  HIS148      0.1986
     10  NE2       17.3490   23.1540   16.5400 N.ar  148  HIS148     -0.2212
     11  N         17.6680   26.5010   21.3180 N.3   150  ILE150     -0.1245
     12  CA        18.7830   26.2570   22.2350 C.3   150  ILE150      0.1561
     13  C         18.7890   27.4690   23.1560 C.2   150  ILE150      0.2260
     14  O         18.8070   28.6040   22.6780 O.2   150  ILE150     -0.2867
     15  CB        20.1300   26.1320   21.4910 C.3   150  ILE150      0.0252
     16  CG1       20.3140   24.7290   20.9040 C.3   150  ILE150      0.0019
     17  CG2       21.3130   26.4140   22.4430 C.3   150  ILE150      0.0019
     18  CD1       19.1220   24.1640   20.1030 C.3   150  ILE150      0.0001
     19  N         26.2820   15.2140   21.7630 N.3   174  TYR174     -0.1241
     20  CA        27.5580   15.5190   21.1330 C.3   174  TYR174      0.1605
     21  C         28.6260   15.7300   22.1600 C.2   174  TYR174      0.2264
     22  O         28.3850   16.3780   23.1770 O.2   174  TYR174     -0.2867
     23  CB        27.4840   16.7800   20.2760 C.3   174  TYR174      0.0534
     24  CG        26.7010   16.6160   18.9920 C.ar  174  TYR174     -0.0201
     25  CD1       25.3190   16.7360   18.9930 C.ar  174  TYR174     -0.0009
     26  CD2       27.3410   16.3470   17.7810 C.ar  174  TYR174     -0.0009
     27  CE1       24.5700   16.6110   17.8280 C.ar  174  TYR174      0.0417
     28  CE2       26.5840   16.2100   16.5880 C.ar  174  TYR174      0.0417
     29  CZ        25.2120   16.3540   16.6360 C.ar  174  TYR174      0.1957
     30  OH        24.4320   16.2410   15.4900 O.3   174  TYR174     -0.2866
     31  N         32.2170   17.3510   21.7920 N.3   176  ILE176     -0.1245
     32  CA        33.0050   18.0780   20.8000 C.3   176  ILE176      0.1561
     33  C         34.3770   18.4710   21.3740 C.2   176  ILE176      0.2260
     34  O         34.4430   19.1820   22.3840 O.2   176  ILE176     -0.2867
     35  CB        32.2510   19.3400   20.2870 C.3   176  ILE176      0.0252
     36  CG1       30.8710   18.9710   19.7040 C.3   176  ILE176      0.0019
     37  CG2       33.1150   20.1240   19.2870 C.3   176  ILE176      0.0019
     38  CD1       30.8980   17.9380   18.5620 C.3   176  ILE176      0.0001
     39  N         26.9280   18.5950   24.6360 N.3   181  LEU181     -0.1245
     40  CA        25.6780   19.2730   24.2740 C.3   181  LEU181      0.1561
     41  C         24.5310   18.2950   24.4280 C.2   181  LEU181      0.2260
     42  O         24.5990   17.1880   23.8980 O.2   181  LEU181     -0.2867
     43  CB        25.7320   19.7720   22.8250 C.3   181  LEU181      0.0270
     44  CG        27.0110   20.5180   22.4160 C.3   181  LEU181      0.0019
     45  CD1       26.9510   20.8790   20.9450 C.3   181  LEU181      0.0001
     46  CD2       27.2340   21.7600   23.2500 C.3   181  LEU181      0.0001
     47  N         20.3300   17.3090   24.1950 N.3   183  PHE183     -0.1241
     48  CA        19.1970   17.5720   23.2990 C.3   183  PHE183      0.1605
     49  C         18.0110   16.7690   23.7850 C.2   183  PHE183      0.2264
     50  O         18.1400   15.5600   24.0020 O.2   183  PHE183     -0.2867
     51  CB        19.5220   17.1390   21.8650 C.3   183  PHE183      0.0534
     52  CG        20.6610   17.8950   21.2310 C.ar  183  PHE183     -0.0203
     53  CD1       21.9890   17.5710   21.5410 C.ar  183  PHE183     -0.0042
     54  CD2       20.4160   18.8910   20.2820 C.ar  183  PHE183     -0.0042
     55  CE1       23.0460   18.2590   20.9500 C.ar  183  PHE183     -0.0003
     56  CE2       21.4800   19.5860   19.7000 C.ar  183  PHE183     -0.0003
     57  CZ        22.7860   19.2580   20.0260 C.ar  183  PHE183     -0.0000
     58  N         14.5270   17.1570   18.3310 N.3   191  HIS191     -0.1241
     59  CA        14.6380   17.8730   19.5930 C.3   191  HIS191      0.1621
     60  C         13.7940   19.1380   19.5590 C.2   191  HIS191      0.2264
     61  O         13.5660   19.7070   18.4850 O.2   191  HIS191     -0.2867
     62  CB        16.0940   18.1870   19.9890 C.3   191  HIS191      0.0745
     63  CG        16.9220   18.8010   18.8940 C.ar  191  HIS191      0.0817
     64  ND1       17.3530   18.0820   17.8010 N.ar  191  HIS191     -0.2268
     65  CD2       17.4380   20.0490   18.7490 C.ar  191  HIS191      0.1154
     66  CE1       18.0770   18.8580   17.0150 C.ar  191  HIS191      0.1986
     67  NE2       18.1470   20.0540   17.5690 N.ar  191  HIS191     -0.2212
     68  N         19.6420   30.0580   19.4070 N.3   206  HIS206     -0.1241
     69  CA        18.9850   29.9870   18.1140 C.3   206  HIS206      0.1621
     70  C         17.6240   29.3540   18.1900 C.2   206  HIS206      0.2264
     71  O         17.3160   28.6070   19.1300 O.2   206  HIS206     -0.2867
     72  CB        19.8480   29.2940   17.0270 C.3   206  HIS206      0.0745
     73  CG        19.9220   27.7950   17.1320 C.ar  206  HIS206      0.0817
     74  ND1       20.8870   27.1470   17.8760 N.ar  206  HIS206     -0.2268
     75  CD2       19.1950   26.8200   16.5330 C.ar  206  HIS206      0.1154
     76  CE1       20.7240   25.8420   17.7610 C.ar  206  HIS206      0.1986
     77  NE2       19.7100   25.6160   16.9440 N.ar  206  HIS206     -0.2212
     78  N         26.8480   29.7690   10.3950 N.3   233  LEU233     -0.1245
     79  CA        27.2720   28.4180   10.0370 C.3   233  LEU233      0.1561
     80  C         26.6480   28.0550    8.6970 C.2   233  LEU233      0.2260
     81  O         25.4430   28.2310    8.4900 O.2   233  LEU233     -0.2867
     82  CB        26.8340   27.3760   11.0850 C.3   233  LEU233      0.0270
     83  CG        27.4610   27.3470   12.4820 C.3   233  LEU233      0.0019
     84  CD1       26.8670   26.2060   13.3010 C.3   233  LEU233      0.0001
     85  CD2       28.9740   27.2130   12.4060 C.3   233  LEU233      0.0001
     86  N         22.9870   17.6730   10.4200 N.3   238  HIS238     -0.1241
     87  CA        23.2260   17.2610   11.7940 C.3   238  HIS238      0.1621
     88  C         23.2370   15.7570   11.9250 C.2   238  HIS238      0.2264
     89  O         22.3790   15.0830   11.3540 O.2   238  HIS238     -0.2867
     90  CB        22.0860   17.7490   12.6810 C.3   238  HIS238      0.0745
     91  CG        22.0360   19.2250   12.8420 C.ar  238  HIS238      0.0817
     92  ND1       23.1240   19.9630   13.2700 N.ar  238  HIS238     -0.2268
     93  CD2       21.0170   20.1030   12.6910 C.ar  238  HIS238      0.1154
     94  CE1       22.7800   21.2330   13.3570 C.ar  238  HIS238      0.1986
     95  NE2       21.5130   21.3460   12.9970 N.ar  238  HIS238     -0.2212
     96  N         22.4550   14.1380   14.6630 N.3   240  ASN240     -0.1240
     97  CA        21.2680   13.7310   15.4160 C.3   240  ASN240      0.1653
     98  C         19.9430   13.7710   14.6360 C.2   240  ASN240      0.2266
     99  O         19.3210   12.7320   14.4540 O.2   240  ASN240     -0.2867
    100  CB        21.1640   14.3910   16.8160 C.3   240  ASN240      0.1155
    101  CG        21.1080   15.9100   16.7830 C.2   240  ASN240      0.2627
    102  OD1       21.0320   16.5390   15.7250 O.2   240  ASN240     -0.2716
    103  ND2       21.1270   16.5100   17.9780 N.am  240  ASN240     -0.0877
    104  N         22.6550   28.4730    9.5810 N.3   247  TYR247     -0.1241
    105  CA        22.3380   29.4130   10.6640 C.3   247  TYR247      0.1605
    106  C         22.6350   30.8310   10.2090 C.2   247  TYR247      0.2264
    107  O         23.7540   31.1140    9.7610 O.2   247  TYR247     -0.2867
    108  CB        23.1690   29.1290   11.9170 C.3   247  TYR247      0.0534
    109  CG        22.9750   27.7730   12.5670 C.ar  247  TYR247     -0.0201
    110  CD1       23.3620   26.5820   11.9230 C.ar  247  TYR247     -0.0009
    111  CD2       22.4520   27.6880   13.8570 C.ar  247  TYR247     -0.0009
    112  CE1       23.1860   25.3490   12.5440 C.ar  247  TYR247      0.0417
    113  CE2       22.2840   26.4640   14.4860 C.ar  247  TYR247      0.0417
    114  CZ        22.6670   25.3030   13.8270 C.ar  247  TYR247      0.1957
    115  OH        22.5070   24.0940   14.4700 O.3   247  TYR247     -0.2866
    116  N         17.8080   29.2340   12.4610 N.3   257  GLU257     -0.1245
    117  CA        18.2910   28.0590   11.7600 C.3   257  GLU257      0.1567
    118  C         17.1820   27.5380   10.8460 C.2   257  GLU257      0.2260
    119  O         16.3800   26.6980   11.2580 O.2   257  GLU257     -0.2867
    120  CB        18.7240   26.9820   12.7720 C.3   257  GLU257      0.0388
    121  CG        19.2860   25.7220   12.1220 C.3   257  GLU257      0.1160
    122  CD        19.5150   24.5590   13.0950 C.2   257  GLU257      0.3649
    123  OE1       19.0740   24.6290   14.2660 O.co2 257  GLU257     -0.2457
    124  OE2       20.1270   23.5550   12.6620 O.co2 257  GLU257     -0.2457
    125  N         30.7580   14.8030   15.8170 N.3   274  GLY274     -0.1210
    126  CA        30.7170   15.7760   14.7350 C.3   274  GLY274      0.1956
    127  C         29.5180   15.5750   13.8320 C.2   274  GLY274      0.2611
    128  O         28.8070   14.5620   13.9350 O.2   274  GLY274     -0.2717
    129  N         29.2860   16.5450   12.9500 N.am  275  ASP275     -0.1973
    130  CA        28.1340   16.4590   12.0590 C.3   275  ASP275      0.1709
    131  C         28.4500   15.6230   10.8020 C.2   275  ASP275      0.2293
    132  O         29.5860   15.1660   10.6120 O.2   275  ASP275     -0.2864
    133  CB        27.5560   17.8580   11.7630 C.3   275  ASP275      0.1436
    134  CG        26.3140   18.1720   12.6340 C.2   275  ASP275      0.3671
    135  OD1       25.8970   17.3050   13.4530 O.co2 275  ASP275     -0.2456
    136  OD2       25.7150   19.2670   12.4820 O.co2 275  ASP275     -0.2456
@<TRIPOS>BOND
     1    81    80    2
     2    80    79    1
     3   104   105    1
     4   107   106    2
     5    79    78    1
     6    79    82    1
     7   106   105    1
     8    86    87    1
     9   132   131    2
    10   105   108    1
    11   131   130    1
    12   118   119    2
    13   118   117    1
    14    82    83    1
    15    89    88    2
    16   117   116    1
    17   117   120    1
    18   133   130    1
    19   133   134    1
    20    87    88    1
    21    87    90    1
    22   108   109    1
    23   110   112   ar
    24   110   109   ar
    25   130   129    1
    26   121   120    1
    27   121   122    1
    28    85    83    1
    29    83    84    1
    30   136   134   ar
    31   112   114   ar
    32   109   111   ar
    33   134   135   ar
    34   124   122   ar
    35    90    91    1
    36    93    91   ar
    37    93    95   ar
    38    91    92   ar
    39   129   127   am
    40    95    94   ar
    41   122   123   ar
    42    92    94   ar
    43   114   115    1
    44   114   113   ar
    45   127   128    2
    46   127   126    1
    47   111   113   ar
    48    99    98    2
    49    98    97    1
    50    96    97    1
    51   126   125    1
    52    97   100    1
    53    30    29    1
    54   102   101    2
    55     9     7   ar
    56     9    10   ar
    57     7     6   ar
    58    75    77   ar
    59    75    73   ar
    60    10     8   ar
    61    28    29   ar
    62    28    26   ar
    63    29    27   ar
    64   101   100    1
    65   101   103   am
    66    77    76   ar
    67    66    67   ar
    68    66    64   ar
    69    72    73    1
    70    72    69    1
    71    73    74   ar
    72     1     2    1
    73     6     8   ar
    74     6     5    1
    75    67    65   ar
    76    76    74   ar
    77    26    24   ar
    78    64    63   ar
    79    27    25   ar
    80     4     3    2
    81    69    70    1
    82    69    68    1
    83    70    71    2
    84    58    59    1
    85     5     2    1
    86    61    60    2
    87     2     3    1
    88    38    36    1
    89    65    63   ar
    90    63    62    1
    91    24    25   ar
    92    24    23    1
    93    37    35    1
    94    60    59    1
    95    59    62    1
    96    56    57   ar
    97    56    54   ar
    98    36    35    1
    99    57    55   ar
   100    18    16    1
   101    23    20    1
   102    54    52   ar
   103    35    32    1
   104    32    33    1
   105    32    31    1
   106    16    15    1
   107    45    44    1
   108    55    53   ar
   109    20    19    1
   110    20    21    1
   111    52    53   ar
   112    52    51    1
   113    11    12    1
   114    33    34    2
   115    15    12    1
   116    15    17    1
   117    51    48    1
   118    21    22    2
   119    12    13    1
   120    44    43    1
   121    44    46    1
   122    14    13    2
   123    43    40    1
   124    48    49    1
   125    48    47    1
   126    49    50    2
   127    42    41    2
   128    40    41    1
   129    40    39    1
