@<TRIPOS>MOLECULE
tmp/2ei1A00.pdb
 155 146 0 0 0
SMALL
GASTEIGER

@<TRIPOS>ATOM
      1  N         12.4070   24.1510   17.3070 N.3   148  HIS148     -0.1241
      2  CA        13.2040   23.9400   18.5110 C.3   148  HIS148      0.1621
      3  C         14.0800   25.1340   18.8130 C.2   148  HIS148      0.2264
      4  O         14.2820   26.0010   17.9600 O.2   148  HIS148     -0.2867
      5  CB        14.0500   22.6540   18.4270 C.3   148  HIS148      0.0745
      6  CG        15.2420   22.7290   17.5150 C.ar  148  HIS148      0.0817
      7  ND1       15.3630   21.9110   16.4110 N.ar  148  HIS148     -0.2268
      8  CD2       16.3940   23.4420   17.5840 C.ar  148  HIS148      0.1154
      9  CE1       16.5290   22.1340   15.8270 C.ar  148  HIS148      0.1986
     10  NE2       17.1710   23.0620   16.5170 N.ar  148  HIS148     -0.2212
     11  N         17.9200   26.2670   21.1230 N.3   150  ILE150     -0.1245
     12  CA        18.9270   26.1610   22.1850 C.3   150  ILE150      0.1561
     13  C         18.7620   27.4030   23.0390 C.2   150  ILE150      0.2260
     14  O         18.7120   28.5210   22.5180 O.2   150  ILE150     -0.2867
     15  CB        20.3750   26.0520   21.6460 C.3   150  ILE150      0.0252
     16  CG1       20.6170   24.6450   21.0640 C.3   150  ILE150      0.0019
     17  CG2       21.4060   26.3680   22.7590 C.3   150  ILE150      0.0019
     18  CD1       22.0740   24.3900   20.6280 C.3   150  ILE150      0.0001
     19  N         26.1590   15.2830   21.6440 N.3   174  TYR174     -0.1241
     20  CA        27.4110   15.6510   20.9910 C.3   174  TYR174      0.1605
     21  C         28.5170   15.8780   21.9770 C.2   174  TYR174      0.2264
     22  O         28.3140   16.5610   22.9780 O.2   174  TYR174     -0.2867
     23  CB        27.2620   16.9280   20.1760 C.3   174  TYR174      0.0534
     24  CG        26.5180   16.7420   18.8800 C.ar  174  TYR174     -0.0201
     25  CD1       25.1380   16.5810   18.8810 C.ar  174  TYR174     -0.0009
     26  CD2       27.1850   16.7540   17.6600 C.ar  174  TYR174     -0.0009
     27  CE1       24.4240   16.4270   17.6990 C.ar  174  TYR174      0.0417
     28  CE2       26.4670   16.6040   16.4510 C.ar  174  TYR174      0.0417
     29  CZ        25.0940   16.4350   16.4930 C.ar  174  TYR174      0.1957
     30  OH        24.3200   16.3090   15.3390 O.3   174  TYR174     -0.2866
     31  N         31.9750   17.4000   21.2430 N.3   176  ILE176     -0.1245
     32  CA        32.7090   18.1010   20.1850 C.3   176  ILE176      0.1561
     33  C         34.0660   18.5570   20.7150 C.2   176  ILE176      0.2260
     34  O         34.1180   19.3110   21.6900 O.2   176  ILE176     -0.2867
     35  CB        31.9420   19.3550   19.7140 C.3   176  ILE176      0.0252
     36  CG1       30.5530   18.9850   19.1930 C.3   176  ILE176      0.0019
     37  CG2       32.7650   20.1260   18.6620 C.3   176  ILE176      0.0019
     38  CD1       29.5200   20.0980   19.3310 C.3   176  ILE176      0.0001
     39  N         26.7390   18.8050   24.3690 N.3   181  LEU181     -0.1245
     40  CA        25.4330   19.4160   24.1530 C.3   181  LEU181      0.1561
     41  C         24.3580   18.3610   24.3270 C.2   181  LEU181      0.2260
     42  O         24.5060   17.2460   23.8260 O.2   181  LEU181     -0.2867
     43  CB        25.3420   20.0410   22.7530 C.3   181  LEU181      0.0270
     44  CG        26.1600   21.3200   22.5380 C.3   181  LEU181      0.0019
     45  CD1       26.0700   21.7510   21.0860 C.3   181  LEU181      0.0001
     46  CD2       25.6480   22.4310   23.4330 C.3   181  LEU181      0.0001
     47  N         20.1750   17.2790   24.1180 N.3   183  PHE183     -0.1241
     48  CA        19.0190   17.5260   23.2400 C.3   183  PHE183      0.1605
     49  C         17.8470   16.7260   23.7480 C.2   183  PHE183      0.2264
     50  O         17.9700   15.5050   23.9240 O.2   183  PHE183     -0.2867
     51  CB        19.3250   17.0920   21.7910 C.3   183  PHE183      0.0534
     52  CG        20.4510   17.8540   21.1590 C.ar  183  PHE183     -0.0203
     53  CD1       21.7820   17.5810   21.5120 C.ar  183  PHE183     -0.0042
     54  CD2       20.1990   18.8370   20.2040 C.ar  183  PHE183     -0.0042
     55  CE1       22.8440   18.2820   20.9410 C.ar  183  PHE183     -0.0003
     56  CE2       21.2650   19.5630   19.6440 C.ar  183  PHE183     -0.0003
     57  CZ        22.5720   19.2880   19.9980 C.ar  183  PHE183     -0.0000
     58  N         14.2630   17.0500   18.3510 N.3   191  HIS191     -0.1241
     59  CA        14.3350   17.6920   19.6700 C.3   191  HIS191      0.1621
     60  C         13.5570   18.9940   19.6440 C.2   191  HIS191      0.2264
     61  O         13.3230   19.5620   18.5650 O.2   191  HIS191     -0.2867
     62  CB        15.7740   17.8890   20.1540 C.3   191  HIS191      0.0745
     63  CG        16.5750   18.8100   19.3040 C.ar  191  HIS191      0.0817
     64  ND1       17.1280   18.4240   18.1020 N.ar  191  HIS191     -0.2268
     65  CD2       16.9640   20.0950   19.5070 C.ar  191  HIS191      0.1154
     66  CE1       17.7870   19.4520   17.5810 C.ar  191  HIS191      0.1986
     67  NE2       17.7050   20.4680   18.4170 N.ar  191  HIS191     -0.2212
     68  N         19.5340   29.9830   19.3410 N.3   206  HIS206     -0.1241
     69  CA        18.8840   29.9480   18.0420 C.3   206  HIS206      0.1621
     70  C         17.5100   29.3350   18.1310 C.2   206  HIS206      0.2264
     71  O         17.2240   28.5870   19.0740 O.2   206  HIS206     -0.2867
     72  CB        19.7210   29.2050   16.9790 C.3   206  HIS206      0.0745
     73  CG        19.7400   27.7080   17.1230 C.ar  206  HIS206      0.0817
     74  ND1       20.6200   27.0620   17.9650 N.ar  206  HIS206     -0.2268
     75  CD2       19.0230   26.7330   16.5060 C.ar  206  HIS206      0.1154
     76  CE1       20.4350   25.7570   17.8730 C.ar  206  HIS206      0.1986
     77  NE2       19.4820   25.5250   16.9840 N.ar  206  HIS206     -0.2212
     78  N         26.7870   29.6000   10.5300 N.3   233  LEU233     -0.1245
     79  CA        27.1910   28.2510   10.1660 C.3   233  LEU233      0.1561
     80  C         26.5560   27.9340    8.8250 C.2   233  LEU233      0.2260
     81  O         25.3630   28.1650    8.6220 O.2   233  LEU233     -0.2867
     82  CB        26.7580   27.2220   11.2160 C.3   233  LEU233      0.0270
     83  CG        27.3250   27.2920   12.6440 C.3   233  LEU233      0.0019
     84  CD1       26.7010   26.2180   13.5200 C.3   233  LEU233      0.0001
     85  CD2       28.8340   27.1310   12.6310 C.3   233  LEU233      0.0001
     86  N         22.8310   17.6000   10.2000 N.3   238  HIS238     -0.1241
     87  CA        23.1040   17.1960   11.5650 C.3   238  HIS238      0.1621
     88  C         23.0750   15.6910   11.7050 C.2   238  HIS238      0.2264
     89  O         22.2070   15.0130   11.1430 O.2   238  HIS238     -0.2867
     90  CB        22.0430   17.7350   12.5180 C.3   238  HIS238      0.0745
     91  CG        22.0780   19.2140   12.7230 C.ar  238  HIS238      0.0817
     92  ND1       23.1860   19.8920   13.2010 N.ar  238  HIS238     -0.2268
     93  CD2       21.0980   20.1380   12.5870 C.ar  238  HIS238      0.1154
     94  CE1       22.8890   21.1740   13.3230 C.ar  238  HIS238      0.1986
     95  NE2       21.6300   21.3480   12.9540 N.ar  238  HIS238     -0.2212
     96  N         22.2900   14.0880   14.4930 N.3   240  ASN240     -0.1225
     97  CA        21.1160   13.6530   15.2540 C.3   240  ASN240      0.1785
     98  C         19.8080   13.6440   14.4590 C.2   240  ASN240      0.2597
     99  O         19.1910   12.5830   14.2950 O.2   240  ASN240     -0.2718
    100  CB        20.9870   14.3490   16.6300 C.3   240  ASN240      0.1169
    101  CG        20.9350   15.8660   16.5560 C.2   240  ASN240      0.2627
    102  OD1       20.9370   16.4770   15.4800 O.2   240  ASN240     -0.2716
    103  ND2       20.8740   16.4860   17.7330 N.am  240  ASN240     -0.0877
    104  N         19.4190   14.7970   13.9140 N.am  241  ASP241     -0.1974
    105  CA        18.1020   14.8790   13.2680 C.3   241  ASP241      0.1709
    106  C         18.1180   14.7120   11.7540 C.2   241  ASP241      0.2293
    107  O         17.0650   14.6720   11.1310 O.2   241  ASP241     -0.2864
    108  CB        17.3480   16.1510   13.6760 C.3   241  ASP241      0.1436
    109  CG        17.8980   17.4150   13.0440 C.2   241  ASP241      0.3671
    110  OD1       18.9010   17.3760   12.2970 O.co2 241  ASP241     -0.2456
    111  OD2       17.2970   18.4850   13.2920 O.co2 241  ASP241     -0.2456
    112  N         22.5650   28.4590    9.5990 N.3   247  TYR247     -0.1241
    113  CA        22.2300   29.4000   10.6770 C.3   247  TYR247      0.1605
    114  C         22.5450   30.8050   10.2240 C.2   247  TYR247      0.2264
    115  O         23.6900   31.0860    9.8450 O.2   247  TYR247     -0.2867
    116  CB        23.0230   29.1060   11.9520 C.3   247  TYR247      0.0534
    117  CG        22.8620   27.7320   12.5700 C.ar  247  TYR247     -0.0201
    118  CD1       23.3490   26.5860   11.9320 C.ar  247  TYR247     -0.0009
    119  CD2       22.2740   27.5830   13.8290 C.ar  247  TYR247     -0.0009
    120  CE1       23.2360   25.3320   12.5220 C.ar  247  TYR247      0.0417
    121  CE2       22.1550   26.3420   14.4240 C.ar  247  TYR247      0.0417
    122  CZ        22.6530   25.2170   13.7720 C.ar  247  TYR247      0.1957
    123  OH        22.5410   23.9800   14.3750 O.3   247  TYR247     -0.2866
    124  N         17.7020   29.1490   12.4800 N.3   257  GLU257     -0.1245
    125  CA        18.2060   27.9550   11.8040 C.3   257  GLU257      0.1567
    126  C         17.1000   27.4490   10.8720 C.2   257  GLU257      0.2260
    127  O         16.2950   26.5990   11.2640 O.2   257  GLU257     -0.2867
    128  CB        18.5910   26.8720   12.8260 C.3   257  GLU257      0.0388
    129  CG        19.2050   25.6340   12.1810 C.3   257  GLU257      0.1160
    130  CD        19.4390   24.4880   13.1500 C.2   257  GLU257      0.3649
    131  OE1       18.9810   24.5580   14.3120 O.co2 257  GLU257     -0.2457
    132  OE2       20.0570   23.4880   12.7080 O.co2 257  GLU257     -0.2457
    133  N         28.0810   30.0280   18.5430 N.3   288  LEU288     -0.1245
    134  CA        28.1640   28.6850   17.9890 C.3   288  LEU288      0.1561
    135  C         29.4510   28.4740   17.2010 C.2   288  LEU288      0.2260
    136  O         29.4150   28.0960   16.0430 O.2   288  LEU288     -0.2867
    137  CB        26.9560   28.4050   17.0890 C.3   288  LEU288      0.0270
    138  CG        25.6760   27.8820   17.7310 C.3   288  LEU288      0.0019
    139  CD1       24.6840   27.5040   16.6530 C.3   288  LEU288      0.0001
    140  CD2       25.9210   26.7040   18.6290 C.3   288  LEU288      0.0001
    141  N         31.5700   26.0960   17.1350 N.3   290  VAL290     -0.1245
    142  CA        31.9500   24.7060   17.3550 C.3   290  VAL290      0.1561
    143  C         32.4460   24.1110   16.0470 C.2   290  VAL290      0.2260
    144  O         32.0590   24.5600   14.9740 O.2   290  VAL290     -0.2867
    145  CB        30.7500   23.8600   17.8300 C.3   290  VAL290      0.0252
    146  CG1       30.4420   24.1100   19.2880 C.3   290  VAL290      0.0019
    147  CG2       29.5430   24.1170   16.9750 C.3   290  VAL290      0.0019
    148  N         32.1610   21.2140   13.6330 N.3   292  LEU292     -0.1245
    149  CA        31.1710   20.1840   13.3610 C.3   292  LEU292      0.1561
    150  C         31.5770   19.3720   12.1380 C.2   292  LEU292      0.2260
    151  O         31.0060   18.3440   11.8640 O.2   292  LEU292     -0.2867
    152  CB        29.8270   20.8410   13.1200 C.3   292  LEU292      0.0270
    153  CG        28.6950   20.8010   14.1390 C.3   292  LEU292      0.0019
    154  CD1       28.9140   19.9650   15.3740 C.3   292  LEU292      0.0001
    155  CD2       27.9990   22.1040   14.4040 C.3   292  LEU292      0.0001
@<TRIPOS>BOND
     1    81    80    2
     2    80    79    1
     3   112   113    1
     4   115   114    2
     5    79    78    1
     6    79    82    1
     7    86    87    1
     8   114   113    1
     9   113   116    1
    10   126   127    2
    11   126   125    1
    12   107   106    2
    13    89    88    2
    14    82    83    1
    15    87    88    1
    16    87    90    1
    17   106   105    1
    18   125   124    1
    19   125   128    1
    20   151   150    2
    21   118   120   ar
    22   118   117   ar
    23   116   117    1
    24   150   149    1
    25   129   128    1
    26   129   130    1
    27   110   109   ar
    28    90    91    1
    29   120   122   ar
    30   117   119   ar
    31    93    91   ar
    32    93    95   ar
    33    85    83    1
    34    83    84    1
    35   132   130   ar
    36    91    92   ar
    37    95    94   ar
    38   109   111   ar
    39   109   108    1
    40   152   149    1
    41   152   153    1
    42   130   131   ar
    43    92    94   ar
    44   105   108    1
    45   105   104    1
    46   149   148    1
    47   122   123    1
    48   122   121   ar
    49   119   121   ar
    50   104    98   am
    51   153   155    1
    52   153   154    1
    53    99    98    2
    54    98    97    1
    55    96    97    1
    56   144   143    2
    57    97   100    1
    58    30    29    1
    59   102   101    2
    60     9     7   ar
    61     9    10   ar
    62   136   135    2
    63   143   142    1
    64     7     6   ar
    65    28    29   ar
    66    28    26   ar
    67    29    27   ar
    68    75    77   ar
    69    75    73   ar
    70    10     8   ar
    71   101   100    1
    72   101   103   am
    73   139   138    1
    74   147   145    1
    75    72    73    1
    76    72    69    1
    77    77    76   ar
    78   137   138    1
    79   137   134    1
    80    73    74   ar
    81   141   142    1
    82   135   134    1
    83     1     2    1
    84   142   145    1
    85     6     8   ar
    86     6     5    1
    87    66    64   ar
    88    66    67   ar
    89    26    24   ar
    90    27    25   ar
    91   138   140    1
    92   145   146    1
    93    76    74   ar
    94     4     3    2
    95   134   133    1
    96    69    70    1
    97    69    68    1
    98    64    63   ar
    99    70    71    2
   100    58    59    1
   101    67    65   ar
   102     5     2    1
   103     2     3    1
   104    61    60    2
   105    37    35    1
   106    24    25   ar
   107    24    23    1
   108    36    38    1
   109    36    35    1
   110    63    65   ar
   111    63    62    1
   112    56    57   ar
   113    56    54   ar
   114    60    59    1
   115    59    62    1
   116    35    32    1
   117    57    55   ar
   118    23    20    1
   119    32    33    1
   120    32    31    1
   121    54    52   ar
   122    18    16    1
   123    33    34    2
   124    55    53   ar
   125    20    19    1
   126    20    21    1
   127    16    15    1
   128    45    44    1
   129    11    12    1
   130    52    53   ar
   131    52    51    1
   132    15    12    1
   133    15    17    1
   134    51    48    1
   135    21    22    2
   136    12    13    1
   137    14    13    2
   138    44    43    1
   139    44    46    1
   140    43    40    1
   141    48    49    1
   142    48    47    1
   143    49    50    2
   144    42    41    2
   145    40    41    1
   146    40    39    1
