@<TRIPOS>MOLECULE
tmp/2ei3A02.pdb
 73 69 0 0 0
SMALL
GASTEIGER

@<TRIPOS>ATOM
      1  N         12.1220   46.1610   10.9560 N.3    18  ALA18      -0.1245
      2  CA        13.1250   45.2120   10.4870 C.3    18  ALA18       0.1562
      3  C         12.6650   43.7660   10.6270 C.2    18  ALA18       0.2260
      4  O         12.7810   42.9890    9.6910 O.2    18  ALA18      -0.2867
      5  CB        14.4560   45.4260   11.2120 C.3    18  ALA18       0.0290
      6  N          9.9130   42.7140    8.0060 N.3    21  SER21      -0.1202
      7  CA        10.5060   42.4990    6.6840 C.3    21  SER21       0.2020
      8  C         11.3400   41.2180    6.6890 C.2    21  SER21       0.2618
      9  O         11.3100   40.4050    5.7360 O.2    21  SER21      -0.2717
     10  CB        11.3880   43.7020    6.3080 C.3    21  SER21       0.2103
     11  OG        10.5600   44.8350    6.0720 O.3    21  SER21      -0.2182
     12  N         12.0720   41.0260    7.7750 N.am   22  PHE22      -0.1975
     13  CA        12.8520   39.8050    7.9530 C.3    22  PHE22       0.1639
     14  C         11.9650   38.5480    7.9560 C.2    22  PHE22       0.2290
     15  O         12.2160   37.5980    7.2000 O.2    22  PHE22      -0.2864
     16  CB        13.6870   39.9020    9.2480 C.3    22  PHE22       0.0560
     17  CG        14.5450   38.6970    9.5270 C.ar   22  PHE22      -0.0200
     18  CD1       15.7790   38.5410    8.8880 C.ar   22  PHE22      -0.0042
     19  CD2       14.1450   37.7300   10.4690 C.ar   22  PHE22      -0.0042
     20  CE1       16.5960   37.4240    9.1630 C.ar   22  PHE22      -0.0003
     21  CE2       14.9560   36.6170   10.7490 C.ar   22  PHE22      -0.0003
     22  CZ        16.1920   36.4760   10.0910 C.ar   22  PHE22      -0.0000
     23  N         10.0490   38.2720    4.2550 N.3    25  ASP25      -0.1225
     24  CA        10.8460   38.2160    3.0290 C.3    25  ASP25       0.1805
     25  C         11.9300   37.1390    3.1650 C.2    25  ASP25       0.2597
     26  O         12.1450   36.3490    2.2530 O.2    25  ASP25      -0.2718
     27  CB        11.4820   39.5860    2.7300 C.3    25  ASP25       0.1424
     28  CG        10.4460   40.6880    2.4400 C.2    25  ASP25       0.3668
     29  OD1        9.2370   40.3940    2.2620 O.co2  25  ASP25      -0.2456
     30  OD2       10.8550   41.8660    2.4040 O.co2  25  ASP25      -0.2456
     31  N         12.6140   37.1090    4.3100 N.am   26  MET26      -0.1979
     32  CA        13.7580   36.2080    4.4580 C.3    26  MET26       0.1605
     33  C         13.3000   34.7970    4.8460 C.2    26  MET26       0.2287
     34  O         13.9470   33.8210    4.4810 O.2    26  MET26      -0.2864
     35  CB        14.7830   36.7450    5.4840 C.3    26  MET26       0.0413
     36  CG        15.3640   38.1350    5.1830 C.3    26  MET26       0.0598
     37  SD        16.2810   38.2080    3.6370 S.3    26  MET26      -0.1393
     38  CE        15.1300   38.9200    2.5110 C.3    26  MET26       0.0692
     39  N         20.9110   39.3770    0.5080 N.3   232  ASN232     -0.1240
     40  CA        20.7860   40.5150    1.4250 C.3   232  ASN232      0.1653
     41  C         21.9840   40.7350    2.3220 C.2   232  ASN232      0.2266
     42  O         21.9460   41.5820    3.2270 O.2   232  ASN232     -0.2867
     43  CB        19.4940   40.4140    2.2390 C.3   232  ASN232      0.1155
     44  CG        18.2670   40.6520    1.3780 C.2   232  ASN232      0.2627
     45  OD1       17.7530   41.7680    1.3290 O.2   232  ASN232     -0.2716
     46  ND2       17.8220   39.6220    0.6520 N.am  232  ASN232     -0.0877
     47  N         23.2060   38.9470    4.6880 N.3   234  ILE234     -0.1245
     48  CA        22.9920   38.5930    6.0880 C.3   234  ILE234      0.1561
     49  C         24.0090   37.5320    6.5190 C.2   234  ILE234      0.2260
     50  O         24.2170   36.5290    5.8150 O.2   234  ILE234     -0.2867
     51  CB        21.5270   38.1250    6.3810 C.3   234  ILE234      0.0252
     52  CG1       20.4970   39.1130    5.7870 C.3   234  ILE234      0.0019
     53  CG2       21.3080   37.9170    7.9170 C.3   234  ILE234      0.0019
     54  CD1       19.0260   38.6260    5.8820 C.3   234  ILE234      0.0001
     55  N         22.0060   35.1500   10.9420 N.3   254  ALA254     -0.1231
     56  CA        21.6580   36.2030   11.9280 C.3   254  ALA254      0.1694
     57  C         20.1950   36.6580   11.7770 C.2   254  ALA254      0.2593
     58  O         19.6590   36.6580   10.6620 O.2   254  ALA254     -0.2718
     59  CB        22.6440   37.4110   11.8320 C.3   254  ALA254      0.0304
     60  N         19.5590   36.9960   12.9080 N.am  255  THR255     -0.1940
     61  CA        18.3050   37.7710   12.9460 C.3   255  THR255      0.2013
     62  C         18.6180   39.2470   13.2260 C.2   255  THR255      0.2484
     63  O         19.7480   39.5560   13.6050 O.2   255  THR255     -0.2729
     64  CB        17.3180   37.2390   14.0290 C.3   255  THR255      0.1807
     65  OG1       17.7920   37.5740   15.3510 O.3   255  THR255     -0.2208
     66  CG2       17.1130   35.7130   13.8800 C.3   255  THR255      0.0379
     67  N         17.6400   40.1690   13.0090 N.am  256  PRO256     -0.2726
     68  CA        17.8390   41.5550   13.4570 C.3   256  PRO256      0.1402
     69  C         18.1460   41.6970   14.9530 C.2   256  PRO256      0.2269
     70  O         18.6750   42.7340   15.3720 O.2   256  PRO256     -0.2865
     71  CB        16.5120   42.2500   13.0930 C.3   256  PRO256      0.0296
     72  CG        15.9560   41.4320   11.9490 C.3   256  PRO256      0.0237
     73  CD        16.3750   40.0100   12.2620 C.3   256  PRO256      0.0939
@<TRIPOS>BOND
     1    39    40    1
     2    46    44   am
     3    45    44    2
     4    44    43    1
     5    40    43    1
     6    40    41    1
     7    26    25    2
     8    29    28   ar
     9    41    42    2
    10    30    28   ar
    11    28    27    1
    12    38    37    1
    13    27    24    1
    14    24    25    1
    15    24    23    1
    16    25    31   am
    17    37    36    1
    18    31    32    1
    19    32    33    1
    20    32    35    1
    21    34    33    2
    22    47    48    1
    23    36    35    1
    24     9     8    2
    25    52    54    1
    26    52    51    1
    27    50    49    2
    28    11    10    1
    29    48    51    1
    30    48    49    1
    31    10     7    1
    32    51    53    1
    33     7     8    1
    34     7     6    1
    35     8    12   am
    36    15    14    2
    37    12    13    1
    38    13    14    1
    39    13    16    1
    40    18    20   ar
    41    18    17   ar
    42    20    22   ar
    43    16    17    1
    44    17    19   ar
    45     4     3    2
    46    22    21   ar
    47    19    21   ar
    48     2     3    1
    49     2     1    1
    50     2     5    1
    51    58    57    2
    52    55    56    1
    53    57    56    1
    54    57    60   am
    55    59    56    1
    56    72    73    1
    57    72    71    1
    58    73    67    1
    59    60    61    1
    60    61    62    1
    61    61    64    1
    62    67    62   am
    63    67    68    1
    64    71    68    1
    65    62    63    2
    66    68    69    1
    67    66    64    1
    68    64    65    1
    69    69    70    2
