@<TRIPOS>MOLECULE
tmp/2ei3A00.pdb
 155 146 0 0 0
SMALL
GASTEIGER

@<TRIPOS>ATOM
      1  N         12.4550   24.1970   17.3380 N.3   148  HIS148     -0.1241
      2  CA        13.3100   23.9310   18.5020 C.3   148  HIS148      0.1621
      3  C         14.1920   25.1220   18.8260 C.2   148  HIS148      0.2264
      4  O         14.4200   25.9920   17.9780 O.2   148  HIS148     -0.2867
      5  CB        14.1440   22.6220   18.3820 C.3   148  HIS148      0.0745
      6  CG        15.3720   22.7150   17.5140 C.ar  148  HIS148      0.0817
      7  ND1       15.5490   21.9410   16.3910 N.ar  148  HIS148     -0.2268
      8  CD2       16.4970   23.4690   17.6300 C.ar  148  HIS148      0.1154
      9  CE1       16.7200   22.2120   15.8430 C.ar  148  HIS148      0.1986
     10  NE2       17.3100   23.1520   16.5730 N.ar  148  HIS148     -0.2212
     11  N         17.8160   26.3210   21.2200 N.3   150  ILE150     -0.1245
     12  CA        18.8710   26.1670   22.2260 C.3   150  ILE150      0.1561
     13  C         18.8370   27.4140   23.0890 C.2   150  ILE150      0.2260
     14  O         18.8820   28.5340   22.5710 O.2   150  ILE150     -0.2867
     15  CB        20.2510   25.9860   21.5970 C.3   150  ILE150      0.0252
     16  CG1       20.3080   24.6190   20.9080 C.3   150  ILE150      0.0019
     17  CG2       21.3790   26.1610   22.6740 C.3   150  ILE150      0.0019
     18  CD1       21.6950   24.1790   20.5500 C.3   150  ILE150      0.0001
     19  N         26.2050   15.2410   21.7510 N.3   174  TYR174     -0.1241
     20  CA        27.4330   15.6710   21.1070 C.3   174  TYR174      0.1605
     21  C         28.5470   15.8810   22.1080 C.2   174  TYR174      0.2264
     22  O         28.3570   16.5520   23.1250 O.2   174  TYR174     -0.2867
     23  CB        27.2200   16.9900   20.3420 C.3   174  TYR174      0.0534
     24  CG        26.9360   16.8400   18.8590 C.ar  174  TYR174     -0.0201
     25  CD1       25.7180   16.3220   18.4100 C.ar  174  TYR174     -0.0009
     26  CD2       27.8740   17.2490   17.9010 C.ar  174  TYR174     -0.0009
     27  CE1       25.4440   16.1960   17.0300 C.ar  174  TYR174      0.0417
     28  CE2       27.6110   17.1320   16.5220 C.ar  174  TYR174      0.0417
     29  CZ        26.3960   16.5940   16.0980 C.ar  174  TYR174      0.1957
     30  OH        26.1220   16.4810   14.7420 O.3   174  TYR174     -0.2866
     31  N         26.8220   18.8510   24.4700 N.3   186  LEU186     -0.1245
     32  CA        25.4960   19.3990   24.2370 C.3   186  LEU186      0.1561
     33  C         24.4260   18.3330   24.4310 C.2   186  LEU186      0.2260
     34  O         24.5430   17.2460   23.8930 O.2   186  LEU186     -0.2867
     35  CB        25.4070   19.9340   22.8180 C.3   186  LEU186      0.0270
     36  CG        26.1420   21.2270   22.5140 C.3   186  LEU186      0.0019
     37  CD1       26.1930   21.3510   20.9910 C.3   186  LEU186      0.0001
     38  CD2       25.4250   22.4260   23.1440 C.3   186  LEU186      0.0001
     39  N         20.3010   17.2190   24.2240 N.3   188  PHE188     -0.1241
     40  CA        19.1520   17.4710   23.3140 C.3   188  PHE188      0.1605
     41  C         17.9500   16.6380   23.7880 C.2   188  PHE188      0.2264
     42  O         18.0800   15.4250   24.0370 O.2   188  PHE188     -0.2867
     43  CB        19.4670   17.0750   21.8550 C.3   188  PHE188      0.0534
     44  CG        20.6450   17.8100   21.2360 C.ar  188  PHE188     -0.0203
     45  CD1       21.9660   17.4520   21.5510 C.ar  188  PHE188     -0.0042
     46  CD2       20.4300   18.8550   20.3200 C.ar  188  PHE188     -0.0042
     47  CE1       23.0490   18.1310   20.9710 C.ar  188  PHE188     -0.0003
     48  CE2       21.5040   19.5660   19.7670 C.ar  188  PHE188     -0.0003
     49  CZ        22.8070   19.1930   20.0740 C.ar  188  PHE188     -0.0000
     50  N         14.4680   17.0110   18.4330 N.3   196  HIS196     -0.1241
     51  CA        14.5630   17.7410   19.7030 C.3   196  HIS196      0.1621
     52  C         13.7350   19.0260   19.6760 C.2   196  HIS196      0.2264
     53  O         13.4860   19.5900   18.6030 O.2   196  HIS196     -0.2867
     54  CB        16.0400   17.9960   20.1420 C.3   196  HIS196      0.0745
     55  CG        16.8450   18.8150   19.1760 C.ar  196  HIS196      0.0817
     56  ND1       17.3160   18.3080   17.9840 N.ar  196  HIS196     -0.2268
     57  CD2       17.2820   20.0970   19.2380 C.ar  196  HIS196      0.1154
     58  CE1       18.0010   19.2430   17.3480 C.ar  196  HIS196      0.1986
     59  NE2       18.0010   20.3350   18.0900 N.ar  196  HIS196     -0.2212
     60  N         27.7750   26.2710   28.2150 N.3   203  MET203     -0.1245
     61  CA        28.4950   27.3940   27.5970 C.3   203  MET203      0.1570
     62  C         28.0250   28.7900   28.0160 C.2   203  MET203      0.2261
     63  O         26.8280   29.0680   28.0030 O.2   203  MET203     -0.2867
     64  CB        28.4700   27.3060   26.0790 C.3   203  MET203      0.0387
     65  CG        27.1150   27.0670   25.4670 C.3   203  MET203      0.0595
     66  SD        26.9120   25.3060   25.1700 S.3   203  MET203     -0.1393
     67  CE        28.1140   25.0080   23.8740 C.3   203  MET203      0.0692
     68  N         19.6700   29.9660   19.3740 N.3   211  HIS211     -0.1241
     69  CA        19.0200   29.9140   18.0810 C.3   211  HIS211      0.1621
     70  C         17.6570   29.2530   18.1520 C.2   211  HIS211      0.2264
     71  O         17.3220   28.4810   19.0920 O.2   211  HIS211     -0.2867
     72  CB        19.9120   29.2230   17.0280 C.3   211  HIS211      0.0745
     73  CG        19.9730   27.7310   17.1600 C.ar  211  HIS211      0.0817
     74  ND1       20.8640   27.0970   17.9970 N.ar  211  HIS211     -0.2268
     75  CD2       19.2760   26.7490   16.5420 C.ar  211  HIS211      0.1154
     76  CE1       20.7060   25.7910   17.8990 C.ar  211  HIS211      0.1986
     77  NE2       19.7440   25.5520   17.0270 N.ar  211  HIS211     -0.2212
     78  N         26.9240   29.4780   10.6560 N.3   238  LEU238     -0.1245
     79  CA        27.3270   28.1250   10.2790 C.3   238  LEU238      0.1561
     80  C         26.6880   27.8110    8.9290 C.2   238  LEU238      0.2260
     81  O         25.4740   27.9450    8.7570 O.2   238  LEU238     -0.2867
     82  CB        26.8920   27.0840   11.3230 C.3   238  LEU238      0.0270
     83  CG        27.3920   27.2000   12.7810 C.3   238  LEU238      0.0019
     84  CD1       26.7150   26.1700   13.6770 C.3   238  LEU238      0.0001
     85  CD2       28.8910   27.0280   12.8320 C.3   238  LEU238      0.0001
     86  N         23.1590   17.8340   10.6470 N.3   243  HIS243     -0.1241
     87  CA        23.5250   17.3230   11.9650 C.3   243  HIS243      0.1621
     88  C         23.3380   15.8050   12.0160 C.2   243  HIS243      0.2264
     89  O         22.4080   15.2540   11.4450 O.2   243  HIS243     -0.2867
     90  CB        22.8480   18.0680   13.1550 C.3   243  HIS243      0.0745
     91  CG        23.3750   19.4550   13.4230 C.ar  243  HIS243      0.0817
     92  ND1       24.7150   19.7410   13.5800 N.ar  243  HIS243     -0.2268
     93  CD2       22.7220   20.6270   13.6200 C.ar  243  HIS243      0.1154
     94  CE1       24.8680   21.0280   13.8400 C.ar  243  HIS243      0.1986
     95  NE2       23.6730   21.5920   13.8720 N.ar  243  HIS243     -0.2212
     96  N         22.4170   14.0230   14.6850 N.3   245  ASN245     -0.1225
     97  CA        21.2400   13.6080   15.4400 C.3   245  ASN245      0.1785
     98  C         19.9220   13.7590   14.6590 C.2   245  ASN245      0.2597
     99  O         19.2680   12.7740   14.3590 O.2   245  ASN245     -0.2718
    100  CB        21.1930   14.2310   16.8580 C.3   245  ASN245      0.1169
    101  CG        21.3150   15.7630   16.8710 C.2   245  ASN245      0.2627
    102  OD1       21.4230   16.4130   15.8250 O.2   245  ASN245     -0.2716
    103  ND2       21.2680   16.3460   18.0810 N.am  245  ASN245     -0.0877
    104  N         19.5860   14.9850   14.2630 N.am  246  ASP246     -0.1974
    105  CA        18.2870   15.2410   13.6490 C.3   246  ASP246      0.1709
    106  C         18.2770   14.9910   12.1400 C.2   246  ASP246      0.2293
    107  O         17.2200   14.7410   11.5330 O.2   246  ASP246     -0.2864
    108  CB        17.8860   16.7120   13.9300 C.3   246  ASP246      0.1436
    109  CG        18.8780   17.7410   13.3390 C.2   246  ASP246      0.3671
    110  OD1       18.9920   17.8220   12.1000 O.co2 246  ASP246     -0.2456
    111  OD2       19.5390   18.4900   14.1030 O.co2 246  ASP246     -0.2456
    112  N         22.6160   28.3330    9.6730 N.3   252  TYR252     -0.1241
    113  CA        22.3070   29.2680   10.7470 C.3   252  TYR252      0.1605
    114  C         22.6550   30.6620   10.2820 C.2   252  TYR252      0.2264
    115  O         23.8330   30.9520    9.9310 O.2   252  TYR252     -0.2867
    116  CB        23.1290   28.9750   11.9990 C.3   252  TYR252      0.0534
    117  CG        22.9350   27.6320   12.6610 C.ar  252  TYR252     -0.0201
    118  CD1       23.2940   26.4370   12.0170 C.ar  252  TYR252     -0.0009
    119  CD2       22.4510   27.5680   13.9700 C.ar  252  TYR252     -0.0009
    120  CE1       23.1360   25.1950   12.6630 C.ar  252  TYR252      0.0417
    121  CE2       22.2980   26.3790   14.6180 C.ar  252  TYR252      0.0417
    122  CZ        22.6670   25.1830   13.9770 C.ar  252  TYR252      0.1957
    123  OH        22.5080   24.0030   14.6580 O.3   252  TYR252     -0.2866
    124  N         17.7720   29.1520   12.5170 N.3   262  GLU262     -0.1245
    125  CA        18.2620   27.9790   11.8010 C.3   262  GLU262      0.1567
    126  C         17.1530   27.4560   10.8450 C.2   262  GLU262      0.2260
    127  O         16.3630   26.6220   11.2230 O.2   262  GLU262     -0.2867
    128  CB        18.7370   26.9050   12.8110 C.3   262  GLU262      0.0388
    129  CG        19.3690   25.6570   12.1390 C.3   262  GLU262      0.1160
    130  CD        19.5410   24.4650   13.0740 C.2   262  GLU262      0.3649
    131  OE1       19.1050   24.5070   14.2320 O.co2 262  GLU262     -0.2457
    132  OE2       20.1420   23.4730   12.6350 O.co2 262  GLU262     -0.2457
    133  N         28.6210   30.1330   18.3740 N.3   293  LEU293     -0.1245
    134  CA        28.7380   28.8470   17.6880 C.3   293  LEU293      0.1561
    135  C         30.0750   28.6930   16.9380 C.2   293  LEU293      0.2260
    136  O         30.1200   28.1810   15.8130 O.2   293  LEU293     -0.2867
    137  CB        27.5270   28.6000   16.7590 C.3   293  LEU293      0.0270
    138  CG        26.1240   28.4990   17.3920 C.3   293  LEU293      0.0019
    139  CD1       25.0330   28.2120   16.3710 C.3   293  LEU293      0.0001
    140  CD2       26.0670   27.4650   18.5050 C.3   293  LEU293      0.0001
    141  N         32.4870   26.4650   16.9260 N.3   295  VAL295     -0.1245
    142  CA        32.8380   25.0770   17.2430 C.3   295  VAL295      0.1561
    143  C         33.0230   24.3380   15.9180 C.2   295  VAL295      0.2260
    144  O         32.3780   24.6840   14.9210 O.2   295  VAL295     -0.2867
    145  CB        31.7560   24.3400   18.1350 C.3   295  VAL295      0.0252
    146  CG1       31.6520   24.9550   19.5490 C.3   295  VAL295      0.0019
    147  CG2       30.3800   24.2900   17.4480 C.3   295  VAL295      0.0019
    148  N         32.4500   21.3110   13.6010 N.3   297  LEU297     -0.1245
    149  CA        31.4520   20.2450   13.4760 C.3   297  LEU297      0.1561
    150  C         31.6980   19.3220   12.2870 C.2   297  LEU297      0.2260
    151  O         31.0850   18.2640   12.2000 O.2   297  LEU297     -0.2867
    152  CB        30.0350   20.8400   13.4040 C.3   297  LEU297      0.0270
    153  CG        29.4230   21.6360   14.5510 C.3   297  LEU297      0.0019
    154  CD1       28.1450   22.3050   14.0990 C.3   297  LEU297      0.0001
    155  CD2       29.1600   20.7550   15.7780 C.3   297  LEU297      0.0001
@<TRIPOS>BOND
     1    81    80    2
     2    80    79    1
     3   112   113    1
     4   115   114    2
     5    79    78    1
     6    79    82    1
     7   114   113    1
     8    86    87    1
     9   113   116    1
    10   126   127    2
    11   126   125    1
    12    82    83    1
    13    89    88    2
    14   107   106    2
    15   125   124    1
    16   125   128    1
    17    87    88    1
    18    87    90    1
    19   116   117    1
    20   118   117   ar
    21   118   120   ar
    22   110   109   ar
    23   129   128    1
    24   129   130    1
    25   106   105    1
    26   151   150    2
    27   150   149    1
    28   132   130   ar
    29   117   119   ar
    30   120   122   ar
    31    83    85    1
    32    83    84    1
    33   130   131   ar
    34    90    91    1
    35   109   108    1
    36   109   111   ar
    37   152   149    1
    38   152   153    1
    39    91    92   ar
    40    91    93   ar
    41   149   148    1
    42    92    94   ar
    43    93    95   ar
    44   105   108    1
    45   105   104    1
    46    94    95   ar
    47   119   121   ar
    48   122   121   ar
    49   122   123    1
    50   154   153    1
    51   104    98   am
    52    99    98    2
    53   153   155    1
    54    98    97    1
    55    96    97    1
    56    30    29    1
    57   144   143    2
    58    97   100    1
    59   136   135    2
    60   102   101    2
    61     9     7   ar
    62     9    10   ar
    63   143   142    1
    64    29    28   ar
    65    29    27   ar
    66   139   138    1
    67     7     6   ar
    68    28    26   ar
    69    75    77   ar
    70    75    73   ar
    71    10     8   ar
    72   137   138    1
    73   137   134    1
    74   100   101    1
    75   101   103   am
    76   141   142    1
    77   135   134    1
    78    77    76   ar
    79    72    73    1
    80    72    69    1
    81    27    25   ar
    82    73    74   ar
    83   142   145    1
    84     1     2    1
    85    58    56   ar
    86    58    59   ar
    87   138   140    1
    88   147   145    1
    89     6     8   ar
    90     6     5    1
    91   134   133    1
    92    76    74   ar
    93    26    24   ar
    94     4     3    2
    95    56    55   ar
    96    69    70    1
    97    69    68    1
    98    59    57   ar
    99   145   146    1
   100    70    71    2
   101     5     2    1
   102    25    24   ar
   103    50    51    1
   104     2     3    1
   105    53    52    2
   106    24    23    1
   107    55    57   ar
   108    55    54    1
   109    52    51    1
   110    51    54    1
   111    48    49   ar
   112    48    46   ar
   113    49    47   ar
   114    46    44   ar
   115    23    20    1
   116    18    16    1
   117    16    15    1
   118    47    45   ar
   119    37    36    1
   120    20    19    1
   121    20    21    1
   122    11    12    1
   123    44    45   ar
   124    44    43    1
   125    15    12    1
   126    15    17    1
   127    43    40    1
   128    21    22    2
   129    12    13    1
   130    36    35    1
   131    36    38    1
   132    14    13    2
   133    35    32    1
   134    40    41    1
   135    40    39    1
   136    41    42    2
   137    67    66    1
   138    34    33    2
   139    32    33    1
   140    32    31    1
   141    66    65    1
   142    65    64    1
   143    64    61    1
   144    61    62    1
   145    61    60    1
   146    63    62    2
