@<TRIPOS>MOLECULE
tmp/2ei3A01.pdb
 71 66 0 0 0
SMALL
GASTEIGER

@<TRIPOS>ATOM
      1  N          4.4040   17.5820   28.8150 N.3     3  VAL3       -0.1245
      2  CA         4.5380   18.5140   27.7040 C.3     3  VAL3        0.1561
      3  C          4.5400   17.7580   26.3740 C.2     3  VAL3        0.2260
      4  O          5.2100   16.7360   26.2400 O.2     3  VAL3       -0.2867
      5  CB         5.8030   19.4150   27.8410 C.3     3  VAL3        0.0252
      6  CG1        6.1400   20.1000   26.5030 C.3     3  VAL3        0.0019
      7  CG2        5.6130   20.4500   28.9790 C.3     3  VAL3        0.0019
      8  N          8.3500   16.0040   31.0900 N.3   167  GLY167     -0.1225
      9  CA         8.0510   14.8870   30.1900 C.3   167  GLY167      0.1811
     10  C          8.9920   14.7270   29.0130 C.2   167  GLY167      0.2280
     11  O          8.7450   13.8950   28.1450 O.2   167  GLY167     -0.2866
     12  N         12.5910   13.7120   27.0650 N.3   169  ARG169     -0.1245
     13  CA        13.5940   12.6700   27.1400 C.3   169  ARG169      0.1563
     14  C         14.8080   13.0660   26.2990 C.2   169  ARG169      0.2260
     15  O         14.6850   13.7130   25.2440 O.2   169  ARG169     -0.2867
     16  CB        12.9580   11.3850   26.6150 C.3   169  ARG169      0.0307
     17  CG        13.9100   10.2760   26.3110 C.3   169  ARG169      0.0489
     18  CD        13.9000    9.2450   27.3600 C.3   169  ARG169      0.2205
     19  NE        14.7800    8.1370   26.9780 N.pl3 169  ARG169     -0.0865
     20  CZ        14.9820    7.0560   27.7300 C.cat 169  ARG169      0.5346
     21  NH1       14.3520    6.9130   28.8930 N.pl3 169  ARG169      0.1354
     22  NH2       15.8020    6.1160   27.3020 N.pl3 169  ARG169      0.1354
     23  N         13.6300   15.7610   23.6240 N.3   190  HIS190     -0.1226
     24  CA        12.4500   15.7060   22.7720 C.3   190  HIS190      0.1752
     25  C         11.2030   15.5000   23.6340 C.2   190  HIS190      0.2596
     26  O         11.2900   15.0210   24.7700 O.2   190  HIS190     -0.2718
     27  CB        12.6030   14.6350   21.6850 C.3   190  HIS190      0.0759
     28  CG        12.8280   13.2380   22.2140 C.ar  190  HIS190      0.0818
     29  ND1       14.0850   12.6800   22.3310 N.ar  190  HIS190     -0.2268
     30  CD2       11.9530   12.2750   22.6070 C.ar  190  HIS190      0.1154
     31  CE1       13.9790   11.4500   22.7960 C.ar  190  HIS190      0.1986
     32  NE2       12.6970   11.1710   22.9550 N.ar  190  HIS190     -0.2212
     33  N         10.0560   15.9180   23.1260 N.am  191  CYS191     -0.1956
     34  CA         8.7880   15.7450   23.8260 C.3   191  CYS191      0.1843
     35  C          7.7240   15.2940   22.8110 C.2   191  CYS191      0.2625
     36  O          6.5380   15.2310   23.1080 O.2   191  CYS191     -0.2714
     37  CB         8.3750   17.0530   24.5010 C.3   191  CYS191      0.0997
     38  SG         8.1640   18.5100   23.3940 S.3   191  CYS191     -0.0797
     39  N          8.1840   15.0240   21.5990 N.am  192  ASN192     -0.1958
     40  CA         7.3260   14.5380   20.5150 C.3   192  ASN192      0.1819
     41  C          8.2330   14.0110   19.3940 C.2   192  ASN192      0.2621
     42  O          9.4170   13.8110   19.6360 O.2   192  ASN192     -0.2715
     43  CB         6.3760   15.6500   20.0360 C.3   192  ASN192      0.1195
     44  CG         7.1160   16.9540   19.6430 C.2   192  ASN192      0.2630
     45  OD1        8.1150   16.9300   18.9490 O.2   192  ASN192     -0.2716
     46  ND2        6.5970   18.0810   20.0880 N.am  192  ASN192     -0.0877
     47  N          7.6850   13.8310   18.1780 N.am  193  ALA193     -0.1977
     48  CA         8.4280   13.2930   17.0270 C.3   193  ALA193      0.1597
     49  C          9.5670   14.1900   16.5190 C.2   193  ALA193      0.2287
     50  O         10.4990   13.6990   15.8630 O.2   193  ALA193     -0.2864
     51  CB         7.4430   12.9330   15.8680 C.3   193  ALA193      0.0319
     52  N         12.7150   11.5530   12.7990 N.3   269  THR269     -0.1203
     53  CA        11.9490   11.2790   14.0330 C.3   269  THR269      0.1994
     54  C         12.8570   11.1160   15.2740 C.2   269  THR269      0.2617
     55  O         13.9010   10.4740   15.2030 O.2   269  THR269     -0.2717
     56  CB        11.0740   10.0380   13.8480 C.3   269  THR269      0.1784
     57  OG1       10.2810   10.2300   12.6690 O.3   269  THR269     -0.2211
     58  CG2       10.1660    9.8050   15.0590 C.3   269  THR269      0.0376
     59  N         12.4440   11.7240   16.3940 N.am  270  ALA270     -0.1979
     60  CA        13.1110   11.5890   17.6930 C.3   270  ALA270      0.1597
     61  C         13.3060   10.1180   18.0440 C.2   270  ALA270      0.2287
     62  O         12.4220    9.3090   17.7610 O.2   270  ALA270     -0.2864
     63  CB        12.2850   12.2980   18.8030 C.3   270  ALA270      0.0319
     64  N         14.1500    7.4010   21.3670 N.3   272  ASP272     -0.1239
     65  CA        14.3440    7.2520   22.8050 C.3   272  ASP272      0.1674
     66  C         15.6590    6.5620   23.1590 C.2   272  ASP272      0.2266
     67  O         16.0910    6.6130   24.3290 O.2   272  ASP272     -0.2867
     68  CB        13.2070    6.4380   23.4620 C.3   272  ASP272      0.1410
     69  CG        11.9400    7.2450   23.6960 C.2   272  ASP272      0.3668
     70  OD1       11.9710    8.4840   23.6080 O.co2 272  ASP272     -0.2456
     71  OD2       10.8930    6.6180   23.9570 O.co2 272  ASP272     -0.2456
@<TRIPOS>BOND
     1    57    56    1
     2    52    53    1
     3    56    53    1
     4    56    58    1
     5    53    54    1
     6    55    54    2
     7    54    59   am
     8    50    49    2
     9    51    48    1
    10    59    60    1
    11    49    48    1
    12    48    47    1
    13    60    61    1
    14    60    63    1
    15    62    61    2
    16    47    41   am
    17    45    44    2
    18    41    42    2
    19    41    40    1
    20    44    43    1
    21    44    46   am
    22    43    40    1
    23    40    39    1
    24    64    65    1
    25    39    35   am
    26    27    28    1
    27    27    24    1
    28    28    29   ar
    29    28    30   ar
    30    29    31   ar
    31    30    32   ar
    32    24    23    1
    33    24    25    1
    34    31    32   ar
    35    65    66    1
    36    65    68    1
    37    35    36    2
    38    35    34    1
    39    33    25   am
    40    33    34    1
    41    66    67    2
    42    38    37    1
    43    68    69    1
    44    70    69   ar
    45    25    26    2
    46    69    71   ar
    47    34    37    1
    48    15    14    2
    49     4     3    2
    50    14    13    1
    51    17    16    1
    52    17    18    1
    53     3     2    1
    54     6     5    1
    55    16    13    1
    56    19    18    1
    57    19    20    2
    58    12    13    1
    59    22    20    1
    60     2     5    1
    61     2     1    1
    62    20    21    1
    63     5     7    1
    64    11    10    2
    65    10     9    1
    66     9     8    1
