@<TRIPOS>MOLECULE
tmp/2ei8A00.pdb
 173 172 0 0 0
SMALL
GASTEIGER

@<TRIPOS>ATOM
      1  N         11.4460    4.6790   10.2310 N.3    82  LYS82      -0.1231
      2  CA        10.3390    5.0130   11.1130 C.3    82  LYS82       0.1693
      3  C          9.7260    3.8150   11.7700 C.2    82  LYS82       0.2592
      4  O          8.9970    3.9630   12.7480 O.2    82  LYS82      -0.2718
      5  CB         9.2250    5.8040   10.3930 C.3    82  LYS82       0.0285
      6  CG         9.7450    7.0840    9.8070 C.3    82  LYS82       0.0035
      7  CD         8.5680    7.9450    9.4660 C.3    82  LYS82       0.0206
      8  CE         8.9870    9.0530    8.5260 C.3    82  LYS82       0.1093
      9  NZ         7.9030   10.0580    8.3580 N.3    82  LYS82      -0.1314
     10  N          9.9920    2.6290   11.2400 N.am   83  GLU83      -0.1966
     11  CA         9.2150    1.4980   11.6690 C.3    83  GLU83       0.1733
     12  C          9.7660    0.9070   12.9440 C.2    83  GLU83       0.2617
     13  O          9.0210    0.4090   13.7960 O.2    83  GLU83      -0.2715
     14  CB         9.1730    0.4400   10.5630 C.3    83  GLU83       0.0429
     15  CG         8.5130    0.9110    9.2920 C.3    83  GLU83       0.1163
     16  CD         7.0510    1.2000    9.4020 C.2    83  GLU83       0.3649
     17  OE1        6.3880    0.7750   10.3850 O.co2  83  GLU83      -0.2457
     18  OE2        6.5430    1.7720    8.4250 O.co2  83  GLU83      -0.2457
     19  N         11.0740    0.9150   13.0610 N.am   84  THR84      -0.1937
     20  CA        11.7110    0.3870   14.2480 C.3    84  THR84       0.2028
     21  C         12.3900    1.5290   15.0550 C.2    84  THR84       0.2642
     22  O         12.8180    1.3250   16.1970 O.2    84  THR84      -0.2714
     23  CB        12.7540   -0.5900   13.8180 C.3    84  THR84       0.1808
     24  OG1       13.6620    0.0940   12.9360 O.3    84  THR84      -0.2208
     25  CG2       12.0690   -1.7830   13.0340 C.3    84  THR84       0.0379
     26  N         12.4960    2.7070   14.4250 N.am   85  TYR85      -0.1973
     27  CA        13.3250    3.8110   14.9200 C.3    85  TYR85       0.1639
     28  C         14.7780    3.4490   15.0340 C.2    85  TYR85       0.2290
     29  O         15.4760    4.0610   15.8300 O.2    85  TYR85      -0.2864
     30  CB        12.8590    4.2980   16.2800 C.3    85  TYR85       0.0560
     31  CG        11.7890    5.3250   16.2050 C.ar   85  TYR85      -0.0198
     32  CD1       10.8830    5.3400   15.1400 C.ar   85  TYR85      -0.0009
     33  CD2       11.6390    6.2620   17.2190 C.ar   85  TYR85      -0.0009
     34  CE1        9.8520    6.2690   15.0830 C.ar   85  TYR85       0.0417
     35  CE2       10.6340    7.1970   17.1660 C.ar   85  TYR85       0.0417
     36  CZ         9.7420    7.1940   16.0770 C.ar   85  TYR85       0.1957
     37  OH         8.7430    8.1230   16.0310 O.3    85  TYR85      -0.2866
     38  N          2.7890   10.5620   31.3570 N.3   135  GLU135     -0.1245
     39  CA         2.3900   10.0630   30.0550 C.3   135  GLU135      0.1567
     40  C          1.2940   10.9220   29.4220 C.2   135  GLU135      0.2260
     41  O          1.4210   11.4260   28.3010 O.2   135  GLU135     -0.2867
     42  CB         1.9240    8.6020   30.1630 C.3   135  GLU135      0.0388
     43  CG         1.8420    7.9050   28.8390 C.3   135  GLU135      0.1160
     44  CD         1.6240    6.3970   28.9610 C.2   135  GLU135      0.3649
     45  OE1        2.2300    5.7470   29.8750 O.co2 135  GLU135     -0.2457
     46  OE2        0.8670    5.8610   28.1010 O.co2 135  GLU135     -0.2457
     47  N          8.9790   -4.3270   21.1150 N.3   162  PHE162     -0.1227
     48  CA         9.5260   -4.0160   19.8050 C.3   162  PHE162      0.1736
     49  C         11.0000   -4.3390   19.8380 C.2   162  PHE162      0.2595
     50  O         11.6060   -4.4000   20.9230 O.2   162  PHE162     -0.2718
     51  CB         9.3500   -2.5350   19.4980 C.3   162  PHE162      0.0547
     52  CG         7.9480   -2.0500   19.6010 C.ar  162  PHE162     -0.0202
     53  CD1        7.1400   -1.9970   18.4730 C.ar  162  PHE162     -0.0042
     54  CD2        7.4410   -1.6010   20.8180 C.ar  162  PHE162     -0.0042
     55  CE1        5.8170   -1.5130   18.5500 C.ar  162  PHE162     -0.0003
     56  CE2        6.1220   -1.1110   20.9230 C.ar  162  PHE162     -0.0003
     57  CZ         5.3040   -1.0660   19.7800 C.ar  162  PHE162     -0.0000
     58  N         11.5830   -4.5240   18.6650 N.am  163  ILE163     -0.1980
     59  CA        12.9930   -4.8810   18.5550 C.3   163  ILE163      0.1595
     60  C         13.9280   -3.8120   19.1210 C.2   163  ILE163      0.2287
     61  O         13.7470   -2.6240   18.8670 O.2   163  ILE163     -0.2864
     62  CB        13.3180   -5.1240   17.0940 C.3   163  ILE163      0.0276
     63  CG1       14.6780   -5.7660   16.9340 C.3   163  ILE163      0.0022
     64  CG2       13.1860   -3.8020   16.2820 C.3   163  ILE163      0.0022
     65  CD1       15.1670   -5.7560   15.4960 C.3   163  ILE163      0.0001
     66  N         11.0500    8.6470   34.3760 N.3   179  ASP179     -0.1225
     67  CA        11.4060    8.2610   33.0040 C.3   179  ASP179      0.1805
     68  C         11.4790    9.5690   32.1680 C.2   179  ASP179      0.2598
     69  O         11.0880   10.6510   32.6000 O.2   179  ASP179     -0.2718
     70  CB        10.3320    7.3290   32.4420 C.3   179  ASP179      0.1424
     71  CG        10.8080    6.4840   31.2250 C.2   179  ASP179      0.3668
     72  OD1       11.9980    6.5740   30.8170 O.co2 179  ASP179     -0.2456
     73  OD2        9.9550    5.7480   30.6700 O.co2 179  ASP179     -0.2456
     74  N         12.0310    9.4730   30.9820 N.am  180  ALA180     -0.1966
     75  CA        11.8560   10.5230   30.0340 C.3   180  ALA180      0.1728
     76  C         10.4160   10.3210   29.5470 C.2   180  ALA180      0.2616
     77  O          9.7240    9.4040   30.0030 O.2   180  ALA180     -0.2715
     78  CB        12.8870   10.3540   28.8790 C.3   180  ALA180      0.0334
     79  N          9.9700   11.1720   28.6360 N.am  181  CYS181     -0.1954
     80  CA         8.6220   11.1310   28.1110 C.3   181  CYS181      0.1843
     81  C          8.5330   11.9370   26.8030 C.2   181  CYS181      0.2625
     82  O          9.5000   12.5410   26.3450 O.2   181  CYS181     -0.2714
     83  CB         7.6210   11.6820   29.1640 C.3   181  CYS181      0.0997
     84  SG         5.8830   11.1800   28.8760 S.3   181  CYS181     -0.0797
     85  N          7.3590   11.9130   26.1850 N.am  182  GLN182     -0.1977
     86  CA         7.1670   12.5360   24.8840 C.3   182  GLN182      0.1601
     87  C          7.6170   13.9920   25.0000 C.2   182  GLN182      0.2287
     88  O          7.3710   14.6180   26.0150 O.2   182  GLN182     -0.2864
     89  CB         5.6740   12.4260   24.5120 C.3   182  GLN182      0.0394
     90  CG         5.2880   13.0750   23.2270 C.3   182  GLN182      0.0908
     91  CD         3.8390   12.8050   22.8140 C.2   182  GLN182      0.2608
     92  OE1        3.3220   13.4290   21.8720 O.2   182  GLN182     -0.2717
     93  NE2        3.1900   11.8820   23.4920 N.am  182  GLN182     -0.0878
     94  N         12.3060   13.6240   23.5920 N.3   185  SER185     -0.1217
     95  CA        12.9110   12.9590   22.4400 C.3   185  SER185      0.1889
     96  C         13.8380   13.8770   21.7400 C.2   185  SER185      0.2288
     97  O         13.5050   15.0440   21.5930 O.2   185  SER185     -0.2866
     98  CB        11.8290   12.5270   21.4440 C.3   185  SER185      0.2089
     99  OG        10.8640   11.7570   22.1370 O.3   185  SER185     -0.2183
    100  N         17.6640   10.6990   23.5260 N.3   203  VAL203     -0.1231
    101  CA        16.3150   10.2980   23.8310 C.3   203  VAL203      0.1692
    102  C         15.5610    9.8290   22.5110 C.2   203  VAL203      0.2593
    103  O         15.4420   10.6000   21.5640 O.2   203  VAL203     -0.2718
    104  CB        15.6220   11.4170   24.5460 C.3   203  VAL203      0.0266
    105  CG1       14.1150   11.0100   24.9080 C.3   203  VAL203      0.0020
    106  CG2       16.3830   11.7950   25.8520 C.3   203  VAL203      0.0020
    107  N         15.1110    8.5670   22.4530 N.am  204  SER204     -0.1938
    108  CA        14.5320    8.0540   21.2200 C.3   204  SER204      0.2055
    109  C         13.0350    7.7250   21.3240 C.2   204  SER204      0.2643
    110  O         12.1970    8.3730   20.6650 O.2   204  SER204     -0.2714
    111  CB        15.2850    6.8030   20.7680 C.3   204  SER204      0.2130
    112  OG        15.1420    6.5790   19.3860 O.3   204  SER204     -0.2179
    113  N         12.6930    6.7000   22.1050 N.am  205  TRP205     -0.1959
    114  CA        11.2760    6.3350   22.3170 C.3   205  TRP205      0.1771
    115  C         11.1170    5.5100   23.5950 C.2   205  TRP205      0.2620
    116  O         12.0950    5.0010   24.1890 O.2   205  TRP205     -0.2715
    117  CB        10.7250    5.5440   21.1180 C.3   205  TRP205      0.0590
    118  CG        11.4920    4.2320   20.8350 C.ar  205  TRP205      0.0006
    119  CD1       12.6430    4.1000   20.0850 C.ar  205  TRP205      0.0946
    120  CD2       11.1330    2.8960   21.2490 C.ar  205  TRP205      0.0152
    121  NE1       13.0340    2.7950   20.0620 N.ar  205  TRP205     -0.2442
    122  CE2       12.1290    2.0270   20.7480 C.ar  205  TRP205      0.0810
    123  CE3       10.0810    2.3570   22.0020 C.ar  205  TRP205      0.0012
    124  CZ2       12.1120    0.6390   20.9730 C.ar  205  TRP205      0.0191
    125  CZ3       10.0470    0.9430   22.2130 C.ar  205  TRP205      0.0001
    126  CH2       11.0630    0.1230   21.7200 C.ar  205  TRP205      0.0015
    127  N          9.8720    5.4060   24.0290 N.am  206  GLY206     -0.1940
    128  CA         9.4950    4.4560   25.0620 C.3   206  GLY206      0.2014
    129  C          8.0540    4.0680   24.7730 C.2   206  GLY206      0.2639
    130  O          7.3460    4.8020   24.0630 O.2   206  GLY206     -0.2714
    131  N          7.6320    2.9190   25.3040 N.am  207  GLU207     -0.1963
    132  CA         6.1940    2.5170   25.2950 C.3   207  GLU207      0.1733
    133  C          5.4240    3.2730   26.3840 C.2   207  GLU207      0.2617
    134  O          5.3650    2.8400   27.5110 O.2   207  GLU207     -0.2715
    135  CB         6.0960    0.9960   25.4910 C.3   207  GLU207      0.0429
    136  CG         6.7720    0.2370   24.3800 C.3   207  GLU207      0.1163
    137  CD         6.6270   -1.2720   24.5310 C.2   207  GLU207      0.3649
    138  OE1        7.6430   -2.0030   24.5150 O.co2 207  GLU207     -0.2457
    139  OE2        5.4750   -1.7260   24.6950 O.co2 207  GLU207     -0.2457
    140  N          4.8690    4.4320   26.0630 N.am  208  GLY208     -0.1940
    141  CA         4.4400    5.3560   27.1090 C.3   208  GLY208      0.2014
    142  C          5.5570    5.8910   28.0120 C.2   208  GLY208      0.2639
    143  O          6.7480    5.8940   27.6660 O.2   208  GLY208     -0.2714
    144  N          5.2050    6.3550   29.2000 N.am  209  CYS209     -0.1967
    145  CA         6.2360    6.9050   30.0530 C.3   209  CYS209      0.1712
    146  C          6.1540    6.3100   31.4440 C.2   209  CYS209      0.2296
    147  O          5.1480    6.4150   32.1020 O.2   209  CYS209     -0.2864
    148  CB         6.1370    8.4450   30.1120 C.3   209  CYS209      0.0983
    149  SG         5.9010    9.2110   28.5040 S.3   209  CYS209     -0.0798
    150  N         13.2130    3.3770   29.1560 N.3   216  GLY216     -0.1210
    151  CA        13.5260    4.3740   28.1120 C.3   216  GLY216      0.1956
    152  C         14.4950    3.8090   27.1050 C.2   216  GLY216      0.2612
    153  O         15.5030    3.1670   27.4370 O.2   216  GLY216     -0.2717
    154  N         14.1920    4.0240   25.8550 N.am  217  ILE217     -0.1965
    155  CA        15.0670    3.5830   24.8150 C.3   217  ILE217      0.1727
    156  C         15.7820    4.7830   24.1450 C.2   217  ILE217      0.2616
    157  O         15.1080    5.7050   23.6160 O.2   217  ILE217     -0.2715
    158  CB        14.2800    2.8060   23.7200 C.3   217  ILE217      0.0290
    159  CG1       13.2050    1.9000   24.3960 C.3   217  ILE217      0.0022
    160  CG2       15.2660    2.0320   22.8550 C.3   217  ILE217      0.0023
    161  CD1       13.7970    0.7540   25.2010 C.3   217  ILE217      0.0001
    162  N         17.1250    4.7030   24.1230 N.am  218  TYR218     -0.1974
    163  CA        18.0000    5.8060   23.6950 C.3   218  TYR218      0.1639
    164  C         18.7810    5.3480   22.5040 C.2   218  TYR218      0.2290
    165  O         19.1330    4.1910   22.4500 O.2   218  TYR218     -0.2864
    166  CB        19.0110    6.1530   24.8050 C.3   218  TYR218      0.0560
    167  CG        18.2840    6.6510   26.0380 C.ar  218  TYR218     -0.0198
    168  CD1       18.1730    8.0080   26.2900 C.ar  218  TYR218     -0.0009
    169  CD2       17.6290    5.7450   26.8940 C.ar  218  TYR218     -0.0009
    170  CE1       17.4650    8.4560   27.3270 C.ar  218  TYR218      0.0417
    171  CE2       16.9250    6.1930   28.0030 C.ar  218  TYR218      0.0417
    172  CZ        16.8260    7.5400   28.1990 C.ar  218  TYR218      0.1957
    173  OH        16.1450    8.0220   29.2700 O.3   218  TYR218     -0.2866
@<TRIPOS>BOND
     1     9     8    1
     2    18    16   ar
     3     8     7    1
     4    15    16    1
     5    15    14    1
     6    16    17   ar
     7     7     6    1
     8     6     5    1
     9     1     2    1
    10     5     2    1
    11    14    11    1
    12     2     3    1
    13    10    11    1
    14    10     3   am
    15    11    12    1
    16     3     4    2
    17    24    23    1
    18    12    19   am
    19    12    13    2
    20    25    23    1
    21    19    20    1
    22    23    20    1
    23    20    21    1
    24    26    27    1
    25    26    21   am
    26    27    28    1
    27    27    30    1
    28    28    29    2
    29    21    22    2
    30    34    32   ar
    31    34    36   ar
    32    32    31   ar
    33    65    63    1
    34    37    36    1
    35    36    35   ar
    36    31    30    1
    37    31    33   ar
    38    64    62    1
    39    63    62    1
    40    62    59    1
    41    35    33   ar
    42    53    55   ar
    43    53    52   ar
    44    55    57   ar
    45    59    58    1
    46    59    60    1
    47    58    49   am
    48    61    60    2
    49   112   111    1
    50    51    52    1
    51    51    48    1
    52    52    54   ar
    53    57    56   ar
    54    48    49    1
    55    48    47    1
    56    49    50    2
    57   121   119   ar
    58   121   122   ar
    59   119   118   ar
    60   110   109    2
    61   122   124   ar
    62   122   120   ar
    63   111   108    1
    64    54    56   ar
    65   118   117    1
    66   118   120   ar
    67   124   126   ar
    68   117   114    1
    69   108   109    1
    70   108   107    1
    71   120   123   ar
    72   109   113   am
    73    98    99    1
    74    98    95    1
    75   103   102    2
    76    97    96    2
    77   126   125   ar
    78    96    95    1
    79    92    91    2
    80   123   125   ar
    81   113   114    1
    82   114   115    1
    83    95    94    1
    84   165   164    2
    85   107   102   am
    86   164   163    1
    87   102   101    1
    88    91    90    1
    89    91    93   am
    90   160   158    1
    91    90    89    1
    92   100   101    1
    93   115   127   am
    94   115   116    2
    95   157   156    2
    96   163   162    1
    97   163   166    1
    98   158   159    1
    99   158   155    1
   100   101   104    1
   101   127   128    1
   102   130   129    2
   103   162   156   am
   104   156   155    1
   105   136   137    1
   106   136   135    1
   107   159   161    1
   108    89    86    1
   109   138   137   ar
   110   137   139   ar
   111   104   105    1
   112   104   106    1
   113   129   128    1
   114   129   131   am
   115   166   167    1
   116   155   154    1
   117    86    87    1
   118    86    85    1
   119    87    88    2
   120   132   131    1
   121   132   135    1
   122   132   133    1
   123   154   152   am
   124   167   168   ar
   125   167   169   ar
   126   140   133   am
   127   140   141    1
   128    85    81   am
   129   168   170   ar
   130    82    81    2
   131   133   134    2
   132    81    80    1
   133   169   171   ar
   134   152   153    2
   135   152   151    1
   136   141   142    1
   137   170   172   ar
   138   143   142    2
   139   171   172   ar
   140   142   144   am
   141    46    44   ar
   142    80    79    1
   143    80    83    1
   144   151   150    1
   145   172   173    1
   146    41    40    2
   147   149    84    1
   148   149   148    1
   149    79    76   am
   150    43    44    1
   151    43    42    1
   152    84    83    1
   153    78    75    1
   154    44    45   ar
   155   144   145    1
   156    40    39    1
   157    76    77    2
   158    76    75    1
   159    75    74    1
   160   145   148    1
   161   145   146    1
   162    39    42    1
   163    39    38    1
   164    73    71   ar
   165    72    71   ar
   166    74    68   am
   167    71    70    1
   168   146   147    2
   169    68    69    2
   170    68    67    1
   171    70    67    1
   172    67    66    1
