@<TRIPOS>MOLECULE
tmp/2eiiB00.pdb
 84 80 0 0 0
SMALL
GASTEIGER

@<TRIPOS>ATOM
      1  N         30.9520   34.2990  135.8530 N.3   137  GLU137     -0.1245
      2  CA        30.5770   34.0620  134.4640 C.3   137  GLU137      0.1567
      3  C         30.3440   35.3460  133.6780 C.2   137  GLU137      0.2260
      4  O         30.7290   35.4310  132.5070 O.2   137  GLU137     -0.2867
      5  CB        29.3650   33.1390  134.3690 C.3   137  GLU137      0.0388
      6  CG        29.0140   32.7900  132.9110 C.3   137  GLU137      0.1160
      7  CD        27.8210   31.8710  132.7940 C.2   137  GLU137      0.3649
      8  OE1       27.6660   31.0010  133.6560 O.co2 137  GLU137     -0.2457
      9  OE2       27.0600   31.9940  131.8130 O.co2 137  GLU137     -0.2457
     10  N         19.9500   33.7940  135.7370 N.3   185  PHE185     -0.1241
     11  CA        21.3530   34.2570  135.7180 C.3   185  PHE185      0.1605
     12  C         21.3650   35.7220  135.3270 C.2   185  PHE185      0.2264
     13  O         21.7740   36.0680  134.2110 O.2   185  PHE185     -0.2867
     14  CB        22.2030   33.4010  134.7680 C.3   185  PHE185      0.0534
     15  CG        22.4670   32.0240  135.2950 C.ar  185  PHE185     -0.0203
     16  CD1       21.5630   30.9890  135.0570 C.ar  185  PHE185     -0.0042
     17  CD2       23.5960   31.7720  136.0720 C.ar  185  PHE185     -0.0042
     18  CE1       21.7900   29.7090  135.5710 C.ar  185  PHE185     -0.0003
     19  CE2       23.8350   30.4910  136.5890 C.ar  185  PHE185     -0.0003
     20  CZ        22.9190   29.4610  136.3350 C.ar  185  PHE185     -0.0000
     21  N         24.0250   36.0940  132.2520 N.3   189  ILE189     -0.1245
     22  CA        23.3750   36.0140  130.9240 C.3   189  ILE189      0.1561
     23  C         23.0000   37.4090  130.4400 C.2   189  ILE189      0.2260
     24  O         23.1620   37.7310  129.2640 O.2   189  ILE189     -0.2867
     25  CB        22.1760   35.0230  130.9360 C.3   189  ILE189      0.0252
     26  CG1       22.7230   33.5850  130.9780 C.3   189  ILE189      0.0019
     27  CG2       21.2890   35.1450  129.6740 C.3   189  ILE189      0.0019
     28  CD1       21.6690   32.5140  131.1840 C.3   189  ILE189      0.0001
     29  N         17.6440   26.1550  136.5740 N.3   321  LYS321     -0.1231
     30  CA        18.6760   26.3240  135.5550 C.3   321  LYS321      0.1693
     31  C         18.1970   25.6290  134.3040 C.2   321  LYS321      0.2592
     32  O         17.6150   24.5390  134.3620 O.2   321  LYS321     -0.2718
     33  CB        20.0010   25.7040  136.0080 C.3   321  LYS321      0.0285
     34  CG        20.5780   26.3200  137.3000 C.3   321  LYS321      0.0035
     35  CD        21.9620   25.7020  137.6150 C.3   321  LYS321      0.0206
     36  CE        22.5870   26.3390  138.8660 C.3   321  LYS321      0.1093
     37  NZ        24.0200   25.9580  139.0160 N.3   321  LYS321     -0.1314
     38  N         18.4630   26.2540  133.1650 N.am  322  CYS322     -0.1956
     39  CA        18.1480   25.6260  131.8980 C.3   322  CYS322      0.1843
     40  C         18.9770   24.3590  131.7130 C.2   322  CYS322      0.2626
     41  O         18.5860   23.4780  130.9590 O.2   322  CYS322     -0.2714
     42  CB        18.4150   26.5940  130.7710 C.3   322  CYS322      0.0997
     43  SG        20.1280   27.2080  130.7530 S.3   322  CYS322     -0.0797
     44  N         20.0910   24.2810  132.4340 N.am  323  SER323     -0.1950
     45  CA        21.0250   23.1500  132.3810 C.3   323  SER323      0.1924
     46  C         20.7520   22.0660  133.4290 C.2   323  SER323      0.2314
     47  O         21.4260   21.0220  133.4480 O.2   323  SER323     -0.2863
     48  CB        22.4520   23.6730  132.5720 C.3   323  SER323      0.2116
     49  OG        22.5250   24.4140  133.7820 O.3   323  SER323     -0.2180
     50  N         26.2880   18.4310  135.0280 N.3   475  ILE475     -0.1231
     51  CA        25.9030   18.9220  133.7030 C.3   475  ILE475      0.1692
     52  C         25.5490   20.4030  133.6950 C.2   475  ILE475      0.2593
     53  O         25.1510   20.9500  132.6590 O.2   475  ILE475     -0.2718
     54  CB        24.7510   18.0890  133.0910 C.3   475  ILE475      0.0266
     55  CG1       23.4300   18.2910  133.8730 C.3   475  ILE475      0.0019
     56  CG2       25.1530   16.6150  133.0550 C.3   475  ILE475      0.0020
     57  CD1       22.2080   17.6640  133.1370 C.3   475  ILE475      0.0001
     58  N         25.7310   21.0440  134.8450 N.am  476  THR476     -0.1939
     59  CA        25.5000   22.4780  134.9920 C.3   476  THR476      0.2028
     60  C         26.8520   23.1900  135.0130 C.2   476  THR476      0.2643
     61  O         27.9090   22.5440  135.0710 O.2   476  THR476     -0.2714
     62  CB        24.7360   22.7760  136.3210 C.3   476  THR476      0.1808
     63  OG1       25.4580   22.1900  137.4130 O.3   476  THR476     -0.2208
     64  CG2       23.3220   22.1620  136.2870 C.3   476  THR476      0.0379
     65  N         26.8190   24.5130  134.9890 N.am  477  GLY477     -0.1939
     66  CA        28.0270   25.3280  135.2230 C.3   477  GLY477      0.2014
     67  C         28.9930   25.3820  134.0540 C.2   477  GLY477      0.2638
     68  O         30.2070   25.4930  134.2640 O.2   477  GLY477     -0.2714
     69  N         28.4640   25.3500  132.8310 N.am  478  ALA478     -0.1977
     70  CA        29.2850   25.5120  131.6120 C.3   478  ALA478      0.1597
     71  C         30.1530   26.7640  131.7410 C.2   478  ALA478      0.2287
     72  O         29.6610   27.8250  132.1200 O.2   478  ALA478     -0.2864
     73  CB        28.3800   25.6190  130.3660 C.3   478  ALA478      0.0319
     74  N         28.1140   27.3080  124.9320 N.3   485  PHE485     -0.1241
     75  CA        26.8480   26.9110  125.5580 C.3   485  PHE485      0.1605
     76  C         25.6220   27.2020  124.6940 C.2   485  PHE485      0.2264
     77  O         25.4120   28.3330  124.2580 O.2   485  PHE485     -0.2867
     78  CB        26.6630   27.5650  126.9420 C.3   485  PHE485      0.0534
     79  CG        25.4640   27.0350  127.6700 C.ar  485  PHE485     -0.0203
     80  CD1       25.5170   25.7800  128.2720 C.ar  485  PHE485     -0.0042
     81  CD2       24.2630   27.7370  127.6680 C.ar  485  PHE485     -0.0042
     82  CE1       24.4050   25.2400  128.9150 C.ar  485  PHE485     -0.0003
     83  CE2       23.1360   27.2120  128.3080 C.ar  485  PHE485     -0.0003
     84  CZ        23.2070   25.9560  128.9280 C.ar  485  PHE485     -0.0000
@<TRIPOS>BOND
     1    77    76    2
     2    76    75    1
     3    74    75    1
     4    75    78    1
     5    78    79    1
     6    81    79   ar
     7    81    83   ar
     8    79    80   ar
     9    80    82   ar
    10    83    84   ar
    11    82    84   ar
    12    24    23    2
    13    27    25    1
    14    73    70    1
    15    23    22    1
    16    43    42    1
    17    42    39    1
    18    22    25    1
    19    22    21    1
    20    25    26    1
    21    41    40    2
    22    26    28    1
    23    70    71    1
    24    70    69    1
    25    40    39    1
    26    40    44   am
    27    71    72    2
    28     9     7   ar
    29    39    38    1
    30    45    44    1
    31    45    48    1
    32    45    46    1
    33     4     3    2
    34    48    49    1
    35    53    52    2
    36     7     6    1
    37     7     8   ar
    38    69    67   am
    39     6     5    1
    40    56    54    1
    41    54    51    1
    42    54    55    1
    43    57    55    1
    44    38    31   am
    45    46    47    2
    46     3     2    1
    47    52    51    1
    48    52    58   am
    49    51    50    1
    50    67    68    2
    51    67    66    1
    52    13    12    2
    53    31    32    2
    54    31    30    1
    55     5     2    1
    56     2     1    1
    57    14    15    1
    58    14    11    1
    59    58    59    1
    60    65    60   am
    61    65    66    1
    62    59    60    1
    63    59    62    1
    64    60    61    2
    65    16    15   ar
    66    16    18   ar
    67    15    17   ar
    68    12    11    1
    69    30    33    1
    70    30    29    1
    71    18    20   ar
    72    11    10    1
    73    33    34    1
    74    17    19   ar
    75    64    62    1
    76    62    63    1
    77    20    19   ar
    78    34    35    1
    79    35    36    1
    80    36    37    1
