@<TRIPOS>MOLECULE
tmp/2eisB00.pdb
 121 114 0 0 0
SMALL
GASTEIGER

@<TRIPOS>ATOM
      1  N         28.2710    9.5330    5.5650 N.3    27  ASP27      -0.1239
      2  CA        29.0840   10.5760    6.1600 C.3    27  ASP27       0.1674
      3  C         29.2740   10.2960    7.6390 C.2    27  ASP27       0.2266
      4  O         30.3640   10.4790    8.1870 O.2    27  ASP27      -0.2867
      5  CB        28.4280   11.9370    5.9920 C.3    27  ASP27       0.1410
      6  CG        29.3130   13.0550    6.4800 C.2    27  ASP27       0.3668
      7  OD1       30.4510   13.1550    5.9850 O.co2  27  ASP27      -0.2456
      8  OD2       28.8820   13.8220    7.3590 O.co2  27  ASP27      -0.2456
      9  N         32.6670    9.7190    9.4900 N.3    31  PHE31      -0.1241
     10  CA        32.9780   10.6070   10.6050 C.3    31  PHE31       0.1605
     11  C         33.5150    9.7880   11.7850 C.2    31  PHE31       0.2264
     12  O         34.5000   10.1730   12.4280 O.2    31  PHE31      -0.2867
     13  CB        31.7160   11.3780   11.0050 C.3    31  PHE31       0.0534
     14  CG        31.8960   12.2790   12.1980 C.ar   31  PHE31      -0.0203
     15  CD1       31.8610   11.7610   13.4910 C.ar   31  PHE31      -0.0042
     16  CD2       32.0800   13.6450   12.0280 C.ar   31  PHE31      -0.0042
     17  CE1       32.0050   12.5930   14.5980 C.ar   31  PHE31      -0.0003
     18  CE2       32.2250   14.4890   13.1310 C.ar   31  PHE31      -0.0003
     19  CZ        32.1860   13.9600   14.4180 C.ar   31  PHE31      -0.0000
     20  N         36.1390   16.8720   10.8710 N.3    43  VAL43      -0.1231
     21  CA        35.0740   17.4710   10.0660 C.3    43  VAL43       0.1692
     22  C         35.1930   16.9570    8.6420 C.2    43  VAL43       0.2593
     23  O         36.2890   16.6110    8.1940 O.2    43  VAL43      -0.2718
     24  CB        35.1380   19.0300   10.0220 C.3    43  VAL43       0.0266
     25  CG1       34.9510   19.6020   11.4140 C.3    43  VAL43       0.0020
     26  CG2       36.4590   19.4980    9.4110 C.3    43  VAL43       0.0020
     27  N         34.0640   16.8930    7.9410 N.am   44  THR44      -0.1939
     28  CA        34.0440   16.4440    6.5560 C.3    44  THR44       0.2028
     29  C         34.3290   17.6640    5.6850 C.2    44  THR44       0.2642
     30  O         33.6950   18.7010    5.8480 O.2    44  THR44      -0.2714
     31  CB        32.6630   15.8740    6.1610 C.3    44  THR44       0.1808
     32  OG1       32.3680   14.7190    6.9610 O.3    44  THR44      -0.2208
     33  CG2       32.6560   15.4740    4.6970 C.3    44  THR44       0.0379
     34  N         35.2890   17.5490    4.7730 N.am   45  VAL45      -0.1963
     35  CA        35.6190   18.6730    3.9080 C.3    45  VAL45       0.1727
     36  C         35.3060   18.3600    2.4580 C.2    45  VAL45       0.2616
     37  O         35.1380   19.2630    1.6340 O.2    45  VAL45      -0.2715
     38  CB        37.1200   19.0380    4.0070 C.3    45  VAL45       0.0290
     39  CG1       37.4820   19.3510    5.4530 C.3    45  VAL45       0.0023
     40  CG2       37.9800   17.8840    3.4820 C.3    45  VAL45       0.0023
     41  N         35.2040   17.0760    2.1420 N.am   46  HIS46      -0.1973
     42  CA        34.9700   16.6960    0.7640 C.3    46  HIS46       0.1656
     43  C         34.3530   15.3150    0.6330 C.2    46  HIS46       0.2291
     44  O         34.5900   14.4310    1.4520 O.2    46  HIS46      -0.2864
     45  CB        36.3190   16.7330    0.0330 C.3    46  HIS46       0.0771
     46  CG        36.2450   16.4340   -1.4320 C.ar   46  HIS46       0.0820
     47  ND1       35.8440   17.3660   -2.3660 N.ar   46  HIS46      -0.2267
     48  CD2       36.5840   15.3260   -2.1300 C.ar   46  HIS46       0.1154
     49  CE1       35.9430   16.8450   -3.5760 C.ar   46  HIS46       0.1986
     50  NE2       36.3900   15.6080   -3.4600 N.ar   46  HIS46      -0.2212
     51  N         46.8810   11.8840    4.6490 N.3    72  GLY72      -0.1210
     52  CA        47.8010   12.9110    4.1920 C.3    72  GLY72       0.1956
     53  C         48.5230   13.4150    5.4240 C.2    72  GLY72       0.2612
     54  O         49.3120   12.6800    6.0210 O.2    72  GLY72      -0.2717
     55  N         48.2640   14.6610    5.8130 N.am   73  ARG73      -0.1965
     56  CA        48.8770   15.2140    7.0150 C.3    73  ARG73       0.1729
     57  C         47.7850   15.3690    8.0710 C.2    73  ARG73       0.2617
     58  O         47.8650   14.7840    9.1480 O.2    73  ARG73      -0.2715
     59  CB        49.5220   16.5770    6.7420 C.3    73  ARG73       0.0348
     60  CG        50.3220   17.0980    7.9300 C.3    73  ARG73       0.0492
     61  CD        51.1430   18.3360    7.5790 C.3    73  ARG73       0.2205
     62  NE        50.3520   19.5640    7.6040 N.pl3  73  ARG73      -0.0865
     63  CZ        49.9210   20.1530    8.7160 C.cat  73  ARG73       0.5346
     64  NH1       50.2080   19.6280    9.9000 N.pl3  73  ARG73       0.1354
     65  NH2       49.2010   21.2660    8.6470 N.pl3  73  ARG73       0.1354
     66  N         46.7660   16.1630    7.7570 N.am   74  THR74      -0.1937
     67  CA        45.6600   16.3700    8.6850 C.3    74  THR74       0.2028
     68  C         44.3880   15.7500    8.1210 C.2    74  THR74       0.2642
     69  O         43.3820   15.6500    8.8210 O.2    74  THR74      -0.2714
     70  CB        45.3940   17.8670    8.9320 C.3    74  THR74       0.1808
     71  OG1       44.8850   18.4670    7.7320 O.3    74  THR74      -0.2208
     72  CG2       46.6810   18.5810    9.3630 C.3    74  THR74       0.0379
     73  N         44.4430   15.3320    6.8580 N.am   75  SER75      -0.1949
     74  CA        43.2850   14.7490    6.1880 C.3    75  SER75       0.1924
     75  C         43.3200   13.2260    6.0680 C.2    75  SER75       0.2314
     76  O         44.3810   12.6000    6.1040 O.2    75  SER75      -0.2863
     77  CB        43.1270   15.3570    4.7850 C.3    75  SER75       0.2116
     78  OG        44.1430   14.8950    3.9020 O.3    75  SER75      -0.2180
     79  N         41.1240    9.9470    3.8880 N.3    76  ARG76      -0.1245
     80  CA        40.1200    9.5820    2.9050 C.3    76  ARG76       0.1563
     81  C         39.5150    8.2620    3.3620 C.2    76  ARG76       0.2260
     82  O         40.2300    7.2740    3.5660 O.2    76  ARG76      -0.2867
     83  CB        40.7200    9.4190    1.5060 C.3    76  ARG76       0.0307
     84  CG        39.7090    8.8750    0.5070 C.3    76  ARG76       0.0489
     85  CD        40.2090    8.8920   -0.9300 C.3    76  ARG76       0.2205
     86  NE        40.3340   10.2450   -1.4620 N.pl3  76  ARG76      -0.0865
     87  CZ        41.3940   11.0280   -1.2860 C.cat  76  ARG76       0.5346
     88  NH1       42.4380   10.5970   -0.5880 N.pl3  76  ARG76       0.1354
     89  NH2       41.4120   12.2450   -1.8120 N.pl3  76  ARG76       0.1354
     90  N         36.4430   12.7670    2.5220 N.3   100  VAL100     -0.1245
     91  CA        37.7140   13.2490    3.0250 C.3   100  VAL100      0.1561
     92  C         37.4020   14.0580    4.2650 C.2   100  VAL100      0.2260
     93  O         36.6050   15.0140    4.2280 O.2   100  VAL100     -0.2867
     94  CB        38.4580   14.1540    2.0130 C.3   100  VAL100      0.0252
     95  CG1       39.7440   14.6790    2.6490 C.3   100  VAL100      0.0019
     96  CG2       38.7800   13.3620    0.7340 C.3   100  VAL100      0.0019
     97  N         39.0240   15.9940    7.8940 N.3   102  VAL102     -0.1245
     98  CA        40.1760   16.6780    8.4520 C.3   102  VAL102      0.1561
     99  C         40.0990   16.8120    9.9630 C.2   102  VAL102      0.2260
    100  O         39.0950   17.2870   10.5040 O.2   102  VAL102     -0.2867
    101  CB        40.2990   18.1030    7.8540 C.3   102  VAL102      0.0252
    102  CG1       41.4810   18.8350    8.4700 C.3   102  VAL102      0.0019
    103  CG2       40.4440   18.0140    6.3340 C.3   102  VAL102      0.0019
    104  N         40.9350   18.4910   13.4800 N.3   104  VAL104     -0.1245
    105  CA        41.1590   19.8790   13.8700 C.3   104  VAL104      0.1561
    106  C         41.3680   19.9790   15.3730 C.2   104  VAL104      0.2260
    107  O         40.9080   19.1200   16.1270 O.2   104  VAL104     -0.2867
    108  CB        39.9590   20.7780   13.4930 C.3   104  VAL104      0.0252
    109  CG1       39.7060   20.7170   11.9880 C.3   104  VAL104      0.0019
    110  CG2       38.7170   20.3400   14.2650 C.3   104  VAL104      0.0019
    111  N         39.8770   24.7140   16.1120 N.3   108  GLY108     -0.1225
    112  CA        39.2480   24.5100   14.8180 C.3   108  GLY108      0.1811
    113  C         40.2460   24.4880   13.6730 C.2   108  GLY108      0.2280
    114  O         39.8680   24.4640   12.5000 O.2   108  GLY108     -0.2866
    115  N         43.2690   22.7650   11.4230 N.3   110  PRO110     -0.2116
    116  CA        43.6690   21.4200   10.9990 C.3   110  PRO110      0.1372
    117  C         44.8630   20.9030   11.7980 C.2   110  PRO110      0.2244
    118  O         45.8660   21.6040   11.9380 O.2   110  PRO110     -0.2868
    119  CB        44.0040   21.6140    9.5220 C.3   110  PRO110      0.0268
    120  CG        43.0190   22.6650    9.1050 C.3   110  PRO110      0.0207
    121  CD        43.0870   23.6510   10.2560 C.3   110  PRO110      0.0892
@<TRIPOS>BOND
     1    49    50   ar
     2    49    47   ar
     3    50    48   ar
     4    47    46   ar
     5    48    46   ar
     6    89    87    1
     7    86    87    2
     8    86    85    1
     9    46    45    1
    10    87    88    1
    11    85    84    1
    12    45    42    1
    13    84    83    1
    14    43    42    1
    15    43    44    2
    16    96    94    1
    17    42    41    1
    18    83    80    1
    19    37    36    2
    20    94    95    1
    21    94    91    1
    22    41    36   am
    23    36    35    1
    24    90    91    1
    25    80    81    1
    26    80    79    1
    27    91    92    1
    28    81    82    2
    29    40    38    1
    30    78    77    1
    31    35    38    1
    32    35    34    1
    33    38    39    1
    34    52    51    1
    35    52    53    1
    36    93    92    2
    37    33    31    1
    38    34    29   am
    39    77    74    1
    40    53    55   am
    41    53    54    2
    42     1     2    1
    43    29    30    2
    44    29    28    1
    45    55    56    1
    46     7     6   ar
    47     5     2    1
    48     5     6    1
    49    75    76    2
    50    75    74    1
    51     2     3    1
    52    31    28    1
    53    31    32    1
    54    74    73    1
    55   103   101    1
    56     6     8   ar
    57    28    27    1
    58    59    56    1
    59    59    60    1
    60    73    68   am
    61    56    57    1
    62    61    62    1
    63    61    60    1
    64    62    63    2
    65     3     4    2
    66    71    70    1
    67    66    57   am
    68    66    67    1
    69   101    98    1
    70   101   102    1
    71    97    98    1
    72    27    22   am
    73    57    58    2
    74    68    67    1
    75    68    69    2
    76    23    22    2
    77    98    99    1
    78    22    21    1
    79    65    63    1
    80    67    70    1
    81    63    64    1
    82    70    72    1
    83   120   119    1
    84   120   121    1
    85    26    24    1
    86     9    10    1
    87   119   116    1
    88    99   100    2
    89    24    21    1
    90    24    25    1
    91    21    20    1
    92   121   115    1
    93    10    13    1
    94    10    11    1
    95   116   115    1
    96   116   117    1
    97    13    14    1
    98    11    12    2
    99   117   118    2
   100   109   108    1
   101    16    14   ar
   102    16    18   ar
   103    14    15   ar
   104   114   113    2
   105    18    19   ar
   106   104   105    1
   107    15    17   ar
   108   108   105    1
   109   108   110    1
   110   113   112    1
   111   105   106    1
   112    19    17   ar
   113   112   111    1
   114   106   107    2
