@<TRIPOS>MOLECULE
tmp/2eitA01.pdb
 80 74 0 0 0
SMALL
GASTEIGER

@<TRIPOS>ATOM
      1  N         22.4530   34.1200   76.1300 N.3   127  ASN127     -0.1240
      2  CA        23.4170   34.0550   75.0400 C.3   127  ASN127      0.1653
      3  C         24.5930   33.1500   75.4660 C.2   127  ASN127      0.2266
      4  O         24.5700   32.5880   76.5740 O.2   127  ASN127     -0.2867
      5  CB        23.8490   35.4430   74.5250 C.3   127  ASN127      0.1155
      6  CG        24.8020   36.1850   75.4720 C.2   127  ASN127      0.2627
      7  OD1       25.3560   35.6000   76.4020 O.2   127  ASN127     -0.2716
      8  ND2       25.0090   37.4840   75.2120 N.am  127  ASN127     -0.0877
      9  N         26.7930   34.3010   78.6160 N.3   130  GLU130     -0.1245
     10  CA        25.9830   34.2080   79.8380 C.3   130  GLU130      0.1567
     11  C         25.7850   32.7420   80.2620 C.2   130  GLU130      0.2260
     12  O         25.8830   32.4000   81.4490 O.2   130  GLU130     -0.2867
     13  CB        24.6310   34.9290   79.6950 C.3   130  GLU130      0.0388
     14  CG        24.7280   36.4270   79.5130 C.3   130  GLU130      0.1160
     15  CD        25.1830   37.1830   80.7650 C.2   130  GLU130      0.3649
     16  OE1       24.9880   36.6740   81.8880 O.co2 130  GLU130     -0.2457
     17  OE2       25.7100   38.3170   80.6070 O.co2 130  GLU130     -0.2457
     18  N         30.6580   51.3650   79.3250 N.3   308  GLU308     -0.1245
     19  CA        30.7460   49.9390   79.0140 C.3   308  GLU308      0.1567
     20  C         30.2570   49.0900   80.1950 C.2   308  GLU308      0.2260
     21  O         29.4430   48.1760   80.0180 O.2   308  GLU308     -0.2867
     22  CB        32.1780   49.5640   78.6360 C.3   308  GLU308      0.0388
     23  CG        32.2690   48.3040   77.7830 C.3   308  GLU308      0.1160
     24  CD        32.3500   47.0050   78.5710 C.2   308  GLU308      0.3649
     25  OE1       32.7360   47.0260   79.7620 O.co2 308  GLU308     -0.2457
     26  OE2       32.0440   45.9370   77.9770 O.co2 308  GLU308     -0.2457
     27  N         26.4270   49.3210   80.6540 N.3   311  VAL311     -0.1231
     28  CA        25.7080   48.5410   79.6460 C.3   311  VAL311      0.1692
     29  C         25.7540   47.0260   79.9220 C.2   311  VAL311      0.2591
     30  O         24.7250   46.3480   79.8560 O.2   311  VAL311     -0.2718
     31  CB        26.1780   48.9020   78.2310 C.3   311  VAL311      0.0266
     32  CG1       25.6040   47.9180   77.2050 C.3   311  VAL311      0.0020
     33  CG2       25.7590   50.3460   77.9160 C.3   311  VAL311      0.0020
     34  N         26.9280   46.5030   80.2690 N.am  312  VAL312     -0.1980
     35  CA        27.0420   45.0940   80.6630 C.3   312  VAL312      0.1595
     36  C         26.1730   44.7780   81.8930 C.2   312  VAL312      0.2287
     37  O         25.4090   43.8000   81.9060 O.2   312  VAL312     -0.2864
     38  CB        28.5030   44.7450   80.9670 C.3   312  VAL312      0.0276
     39  CG1       28.5890   43.3840   81.6550 C.3   312  VAL312      0.0022
     40  CG2       29.3280   44.7620   79.6930 C.3   312  VAL312      0.0022
     41  N         22.1770   45.2190   81.0200 N.3   315  TYR315     -0.1227
     42  CA        21.5550   44.4520   79.9280 C.3   315  TYR315      0.1736
     43  C         22.0330   43.0080   79.7770 C.2   315  TYR315      0.2596
     44  O         21.4450   42.2570   78.9980 O.2   315  TYR315     -0.2718
     45  CB        21.6560   45.2070   78.5930 C.3   315  TYR315      0.0548
     46  CG        21.0210   46.5780   78.6900 C.ar  315  TYR315     -0.0200
     47  CD1       19.6610   46.7030   78.9570 C.ar  315  TYR315     -0.0009
     48  CD2       21.7830   47.7420   78.5260 C.ar  315  TYR315     -0.0009
     49  CE1       19.0620   47.9550   79.0720 C.ar  315  TYR315      0.0417
     50  CE2       21.1870   49.0060   78.6410 C.ar  315  TYR315      0.0417
     51  CZ        19.8250   49.0990   78.8900 C.ar  315  TYR315      0.1957
     52  OH        19.2440   50.3480   79.0110 O.3   315  TYR315     -0.2866
     53  N         23.0900   42.6270   80.5030 N.am  316  GLY316     -0.1957
     54  CA        23.5210   41.2220   80.5160 C.3   316  GLY316      0.1869
     55  C         22.3690   40.3360   80.9510 C.2   316  GLY316      0.2309
     56  O         21.6630   40.6580   81.9180 O.2   316  GLY316     -0.2863
     57  N         23.1540   47.4790   70.6970 N.3   349  LEU349     -0.1245
     58  CA        22.9640   46.1030   71.1760 C.3   349  LEU349      0.1561
     59  C         22.0240   45.3110   70.2730 C.2   349  LEU349      0.2260
     60  O         20.9320   45.7940   69.9040 O.2   349  LEU349     -0.2867
     61  CB        22.4310   46.0890   72.6150 C.3   349  LEU349      0.0270
     62  CG        23.3860   46.6260   73.6950 C.3   349  LEU349      0.0019
     63  CD1       22.6330   46.8730   74.9730 C.3   349  LEU349      0.0001
     64  CD2       24.5440   45.6510   73.9170 C.3   349  LEU349      0.0001
     65  N         23.4680   40.0450   71.6590 N.3   359  ASP359     -0.1225
     66  CA        23.7490   40.7280   72.9130 C.3   359  ASP359      0.1805
     67  C         22.6830   40.4470   73.9650 C.2   359  ASP359      0.2597
     68  O         23.0070   40.2300   75.1280 O.2   359  ASP359     -0.2718
     69  CB        23.9130   42.2260   72.6720 C.3   359  ASP359      0.1424
     70  CG        25.1060   42.5290   71.7800 C.2   359  ASP359      0.3668
     71  OD1       26.1450   41.8440   71.9200 O.co2 359  ASP359     -0.2456
     72  OD2       25.0180   43.4400   70.9310 O.co2 359  ASP359     -0.2456
     73  N         21.4200   40.4680   73.5480 N.am  360  LEU360     -0.1979
     74  CA        20.2930   40.1040   74.4010 C.3   360  LEU360      0.1596
     75  C         19.4530   39.0330   73.7130 C.2   360  LEU360      0.2287
     76  O         19.1240   39.1700   72.5330 O.2   360  LEU360     -0.2864
     77  CB        19.3670   41.3010   74.6460 C.3   360  LEU360      0.0297
     78  CG        19.8130   42.3400   75.6780 C.3   360  LEU360      0.0022
     79  CD1       20.9350   43.2110   75.1420 C.3   360  LEU360      0.0001
     80  CD2       18.6160   43.1970   76.0670 C.3   360  LEU360      0.0001
@<TRIPOS>BOND
     1    60    59    2
     2    59    58    1
     3    57    58    1
     4    72    70   ar
     5    58    61    1
     6    65    66    1
     7    70    71   ar
     8    70    69    1
     9    76    75    2
    10    61    62    1
    11    69    66    1
    12    66    67    1
    13    73    67   am
    14    73    74    1
    15    62    64    1
    16    62    63    1
    17    75    74    1
    18    67    68    2
    19    74    77    1
    20     5     2    1
    21     5     6    1
    22    77    78    1
    23     2     3    1
    24     2     1    1
    25    79    78    1
    26     8     6   am
    27     3     4    2
    28     6     7    2
    29    78    80    1
    30    32    31    1
    31    23    24    1
    32    23    22    1
    33    33    31    1
    34    26    24   ar
    35    31    28    1
    36    48    50   ar
    37    48    46   ar
    38    24    25   ar
    39    45    46    1
    40    45    42    1
    41     9    10    1
    42    22    19    1
    43    50    51   ar
    44    46    47   ar
    45    51    52    1
    46    51    49   ar
    47    47    49   ar
    48    44    43    2
    49    19    18    1
    50    19    20    1
    51    14    13    1
    52    14    15    1
    53    28    29    1
    54    28    27    1
    55    40    38    1
    56    13    10    1
    57    43    42    1
    58    43    53   am
    59    10    11    1
    60    30    29    2
    61    29    34   am
    62    42    41    1
    63    21    20    2
    64    11    12    2
    65    34    35    1
    66    53    54    1
    67    54    55    1
    68    17    15   ar
    69    35    38    1
    70    35    36    1
    71    15    16   ar
    72    55    56    2
    73    38    39    1
    74    36    37    2
