@<TRIPOS>MOLECULE
tmp/2eitA00.pdb
 197 189 0 0 0
SMALL
GASTEIGER

@<TRIPOS>ATOM
      1  N         14.6480   27.1390   94.1060 N.3   181  ALA181     -0.1231
      2  CA        15.6400   27.8000   93.2630 C.3   181  ALA181      0.1679
      3  C         15.0170   28.6650   92.1790 C.2   181  ALA181      0.2434
      4  O         13.8800   28.4340   91.7860 O.2   181  ALA181     -0.2733
      5  CB        16.5660   26.7330   92.6250 C.3   181  ALA181      0.0304
      6  N         15.7750   29.6550   91.6760 N.am  182  PRO182     -0.2718
      7  CA        15.3020   30.5950   90.6520 C.3   182  PRO182      0.1535
      8  C         15.5290   30.1120   89.2290 C.2   182  PRO182      0.2599
      9  O         16.3680   29.2320   89.0080 O.2   182  PRO182     -0.2715
     10  CB        16.1780   31.8250   90.9000 C.3   182  PRO182      0.0310
     11  CG        17.4810   31.2510   91.3540 C.3   182  PRO182      0.0237
     12  CD        17.1440   29.9780   92.1370 C.3   182  PRO182      0.0939
     13  N         14.8060   30.7070   88.2740 N.am  183  TRP183     -0.1960
     14  CA        15.0060   30.3840   86.8630 C.3   183  TRP183      0.1771
     15  C         16.1890   31.1160   86.2280 C.2   183  TRP183      0.2620
     16  O         16.6490   30.7130   85.1570 O.2   183  TRP183     -0.2715
     17  CB        13.7180   30.6140   86.0400 C.3   183  TRP183      0.0590
     18  CG        13.1310   32.0040   86.2020 C.ar  183  TRP183      0.0006
     19  CD1       12.0770   32.3560   87.0040 C.ar  183  TRP183      0.0946
     20  CD2       13.5550   33.2180   85.5450 C.ar  183  TRP183      0.0152
     21  NE1       11.8320   33.7100   86.9050 N.ar  183  TRP183     -0.2442
     22  CE2       12.7180   34.2640   86.0190 C.ar  183  TRP183      0.0810
     23  CE3       14.5750   33.5290   84.6290 C.ar  183  TRP183      0.0012
     24  CZ2       12.8500   35.5960   85.5880 C.ar  183  TRP183      0.0191
     25  CZ3       14.7030   34.8550   84.1890 C.ar  183  TRP183      0.0001
     26  CH2       13.8450   35.8770   84.6770 C.ar  183  TRP183      0.0015
     27  N         16.6900   32.1790   86.8630 N.am  184  ASN184     -0.1958
     28  CA        17.6920   33.0070   86.1690 C.3   184  ASN184      0.1819
     29  C         19.1260   32.4750   86.1940 C.2   184  ASN184      0.2621
     30  O         19.8940   32.7710   85.2920 O.2   184  ASN184     -0.2715
     31  CB        17.6160   34.4870   86.5840 C.3   184  ASN184      0.1195
     32  CG        18.1370   34.7380   87.9780 C.2   184  ASN184      0.2630
     33  OD1       18.0620   33.8750   88.8540 O.2   184  ASN184     -0.2716
     34  ND2       18.6820   35.9320   88.1930 N.am  184  ASN184     -0.0877
     35  N         19.4750   31.7160   87.2270 N.am  185  PHE185     -0.1974
     36  CA        20.7470   30.9980   87.2600 C.3   185  PHE185      0.1639
     37  C         20.4320   29.5670   87.6560 C.2   185  PHE185      0.2290
     38  O         20.6980   29.1550   88.7890 O.2   185  PHE185     -0.2864
     39  CB        21.7250   31.6570   88.2340 C.3   185  PHE185      0.0560
     40  CG        22.2870   32.9410   87.7150 C.ar  185  PHE185     -0.0200
     41  CD1       21.6460   34.1580   87.9920 C.ar  185  PHE185     -0.0042
     42  CD2       23.4530   32.9430   86.9410 C.ar  185  PHE185     -0.0042
     43  CE1       22.1650   35.3620   87.4930 C.ar  185  PHE185     -0.0003
     44  CE2       23.9710   34.1370   86.4280 C.ar  185  PHE185     -0.0003
     45  CZ        23.3310   35.3470   86.7130 C.ar  185  PHE185     -0.0000
     46  N         22.9310   28.6490   90.6590 N.3   189  ILE189     -0.1245
     47  CA        22.3210   28.8470   91.9940 C.3   189  ILE189      0.1561
     48  C         21.6040   27.5780   92.4660 C.2   189  ILE189      0.2260
     49  O         21.7060   27.1920   93.6210 O.2   189  ILE189     -0.2867
     50  CB        21.4450   30.1100   92.0430 C.3   189  ILE189      0.0252
     51  CG1       22.3220   31.3620   91.9320 C.3   189  ILE189      0.0019
     52  CG2       20.6660   30.1830   93.3480 C.3   189  ILE189      0.0019
     53  CD1       21.5400   32.6650   91.8490 C.3   189  ILE189      0.0001
     54  N         12.9030   26.0780   89.5690 N.3   209  ALA209     -0.1245
     55  CA        11.9460   27.0180   89.0100 C.3   209  ALA209      0.1562
     56  C         11.2430   26.3940   87.7960 C.2   209  ALA209      0.2260
     57  O         11.8450   25.6800   86.9770 O.2   209  ALA209     -0.2867
     58  CB        12.6500   28.3090   88.6200 C.3   209  ALA209      0.0290
     59  N         16.3510   29.3970  100.0220 N.3   258  PHE258     -0.1227
     60  CA        15.5490   30.0380   98.9710 C.3   258  PHE258      0.1736
     61  C         16.2780   31.1770   98.2780 C.2   258  PHE258      0.2596
     62  O         16.9180   32.0200   98.9140 O.2   258  PHE258     -0.2718
     63  CB        14.2350   30.5690   99.5540 C.3   258  PHE258      0.0547
     64  CG        13.4730   31.4760   98.6140 C.ar  258  PHE258     -0.0202
     65  CD1       12.6520   30.9370   97.6350 C.ar  258  PHE258     -0.0042
     66  CD2       13.5810   32.8660   98.7120 C.ar  258  PHE258     -0.0042
     67  CE1       11.9430   31.7780   96.7570 C.ar  258  PHE258     -0.0003
     68  CE2       12.8810   33.7070   97.8470 C.ar  258  PHE258     -0.0003
     69  CZ        12.0480   33.1550   96.8670 C.ar  258  PHE258     -0.0000
     70  N         16.1570   31.1930   96.9570 N.am  259  THR259     -0.1939
     71  CA        16.5620   32.3440   96.1690 C.3   259  THR259      0.2028
     72  C         15.4530   32.6580   95.1780 C.2   259  THR259      0.2643
     73  O         15.0020   31.7780   94.4210 O.2   259  THR259     -0.2714
     74  CB        17.8920   32.0760   95.4400 C.3   259  THR259      0.1808
     75  OG1       18.9020   31.7610   96.4100 O.3   259  THR259     -0.2208
     76  CG2       18.3160   33.2850   94.6750 C.3   259  THR259      0.0379
     77  N         15.0100   33.9140   95.1800 N.am  260  GLY260     -0.1939
     78  CA        13.8950   34.3120   94.3200 C.3   260  GLY260      0.2014
     79  C         13.3680   35.6850   94.6730 C.2   260  GLY260      0.2640
     80  O         14.1160   36.5270   95.1830 O.2   260  GLY260     -0.2714
     81  N         12.0890   35.9160   94.3830 N.am  261  SER261     -0.1935
     82  CA        11.4830   37.2470   94.5580 C.3   261  SER261      0.2055
     83  C         11.3200   37.6140   96.0300 C.2   261  SER261      0.2642
     84  O         11.1770   36.7350   96.8820 O.2   261  SER261     -0.2714
     85  CB        10.1180   37.3200   93.8700 C.3   261  SER261      0.2130
     86  OG         9.1610   36.5640   94.5870 O.3   261  SER261     -0.2179
     87  N         11.3060   38.9160   96.3110 N.am  262  LEU262     -0.1977
     88  CA        11.0230   39.3890   97.6570 C.3   262  LEU262      0.1596
     89  C          9.6470   38.9300   98.1160 C.2   262  LEU262      0.2287
     90  O          9.4810   38.5160   99.2610 O.2   262  LEU262     -0.2864
     91  CB        11.1100   40.9140   97.7380 C.3   262  LEU262      0.0297
     92  CG        10.7940   41.5550   99.1000 C.3   262  LEU262      0.0022
     93  CD1       11.7120   41.0750  100.2380 C.3   262  LEU262      0.0001
     94  CD2       10.8750   43.0540   98.9550 C.3   262  LEU262      0.0001
     95  N          7.9510   36.2830   97.5220 N.3   264  VAL264     -0.1245
     96  CA         7.9400   34.9050   97.9440 C.3   264  VAL264      0.1561
     97  C          8.8260   34.7300   99.1910 C.2   264  VAL264      0.2260
     98  O          8.4260   34.0730  100.1550 O.2   264  VAL264     -0.2867
     99  CB         8.3430   33.9550   96.7820 C.3   264  VAL264      0.0252
    100  CG1        8.5410   32.5610   97.3010 C.3   264  VAL264      0.0019
    101  CG2        7.2590   33.9800   95.7000 C.3   264  VAL264      0.0019
    102  N         17.3450   34.7590   99.7410 N.3   288  GLU288     -0.1231
    103  CA        18.1150   35.7480   99.0230 C.3   288  GLU288      0.1699
    104  C         17.1570   36.2880   97.9800 C.2   288  GLU288      0.2593
    105  O         16.6810   35.5500   97.1270 O.2   288  GLU288     -0.2718
    106  CB        19.3890   35.0930   98.4900 C.3   288  GLU288      0.0402
    107  CG        20.2310   34.4870   99.6660 C.3   288  GLU288      0.1161
    108  CD        20.7960   35.5540  100.6370 C.2   288  GLU288      0.3649
    109  OE1       21.3760   36.5340  100.1510 O.co2 288  GLU288     -0.2457
    110  OE2       20.6910   35.4050  101.8670 O.co2 288  GLU288     -0.2457
    111  N         16.8480   37.5940   98.0650 N.am  289  THR289     -0.1939
    112  CA        15.5740   38.1540   97.5510 C.3   289  THR289      0.2028
    113  C         15.6200   39.3760   96.5910 C.2   289  THR289      0.2642
    114  O         14.6800   40.1820   96.5420 O.2   289  THR289     -0.2714
    115  CB        14.6150   38.4910   98.7320 C.3   289  THR289      0.1808
    116  OG1       15.3040   39.2870   99.7090 O.3   289  THR289     -0.2208
    117  CG2       14.0780   37.2030   99.3950 C.3   289  THR289      0.0379
    118  N         16.6990   39.5000   95.8300 N.am  290  GLY290     -0.1954
    119  CA        16.7920   40.5160   94.7750 C.3   290  GLY290      0.1869
    120  C         17.3140   41.8630   95.2110 C.2   290  GLY290      0.2309
    121  O         17.7820   42.0130   96.3370 O.2   290  GLY290     -0.2863
    122  N         19.5000   39.5350   89.8700 N.3   322  CYS322     -0.1235
    123  CA        19.3260   40.2280   91.1410 C.3   322  CYS322      0.1677
    124  C         20.4090   41.2840   91.3460 C.2   322  CYS322      0.2270
    125  O         20.2210   42.2090   92.1340 O.2   322  CYS322     -0.2867
    126  CB        19.3530   39.2450   92.2860 C.3   322  CYS322      0.0956
    127  SG        20.9030   38.2890   92.3290 S.3   322  CYS322     -0.0801
    128  N          6.8670   37.0860   82.3510 N.3   368  GLN368     -0.1245
    129  CA         7.9330   38.0710   82.5260 C.3   368  GLN368      0.1566
    130  C          7.8300   39.2230   81.5180 C.2   368  GLN368      0.2260
    131  O          7.9890   40.3950   81.8760 O.2   368  GLN368     -0.2867
    132  CB         9.3260   37.4060   82.5120 C.3   368  GLN368      0.0367
    133  CG         9.5960   36.6630   83.8150 C.3   368  GLN368      0.0905
    134  CD         9.4950   37.5840   85.0320 C.2   368  GLN368      0.2608
    135  OE1        8.6790   37.3520   85.9400 O.2   368  GLN368     -0.2717
    136  NE2       10.2860   38.6540   85.0300 N.am  368  GLN368     -0.0878
    137  N          5.0880   41.6000   82.6360 N.3   371  LYS371     -0.1245
    138  CA         5.5210   42.4150   83.7740 C.3   371  LYS371      0.1561
    139  C          6.4920   43.5210   83.3690 C.2   371  LYS371      0.2260
    140  O          6.3360   44.6880   83.7450 O.2   371  LYS371     -0.2867
    141  CB         6.1610   41.5190   84.8280 C.3   371  LYS371      0.0271
    142  CG         5.1530   40.6100   85.5100 C.3   371  LYS371      0.0035
    143  CD         5.8690   39.4640   86.2100 C.3   371  LYS371      0.0206
    144  CE         6.2020   39.7770   87.6600 C.3   371  LYS371      0.1093
    145  NZ         6.9980   38.6510   88.2510 N.3   371  LYS371     -0.1314
    146  N         11.8620   46.2310   91.7220 N.3   417  GLU417     -0.1245
    147  CA        12.6580   45.3670   90.8500 C.3   417  GLU417      0.1567
    148  C         11.8640   44.9190   89.6310 C.2   417  GLU417      0.2260
    149  O         10.9390   44.0930   89.7380 O.2   417  GLU417     -0.2867
    150  CB        13.1740   44.1670   91.6360 C.3   417  GLU417      0.0388
    151  CG        14.1720   43.3370   90.8580 C.3   417  GLU417      0.1160
    152  CD        14.6580   42.1400   91.6410 C.2   417  GLU417      0.3649
    153  OE1       15.8970   41.9730   91.7160 O.co2 417  GLU417     -0.2457
    154  OE2       13.8120   41.3850   92.1940 O.co2 417  GLU417     -0.2457
    155  N         13.4070   43.5610   86.7560 N.3   419  PHE419     -0.1241
    156  CA        13.9760   42.2740   86.3150 C.3   419  PHE419      0.1605
    157  C         13.8780   42.1000   84.7900 C.2   419  PHE419      0.2264
    158  O         13.5380   41.0360   84.2820 O.2   419  PHE419     -0.2867
    159  CB        13.3330   41.1030   87.0880 C.3   419  PHE419      0.0534
    160  CG        14.3230   40.0800   87.5710 C.ar  419  PHE419     -0.0203
    161  CD1       14.3500   38.8010   87.0280 C.ar  419  PHE419     -0.0042
    162  CD2       15.2110   40.4000   88.6040 C.ar  419  PHE419     -0.0042
    163  CE1       15.2740   37.8500   87.4920 C.ar  419  PHE419     -0.0003
    164  CE2       16.1220   39.4660   89.0710 C.ar  419  PHE419     -0.0003
    165  CZ        16.1480   38.1830   88.5170 C.ar  419  PHE419     -0.0000
    166  N         21.6110   44.9130   97.6780 N.3   445  LEU445     -0.1245
    167  CA        22.3350   43.7550   97.1120 C.3   445  LEU445      0.1561
    168  C         23.6700   44.1180   96.4540 C.2   445  LEU445      0.2260
    169  O         24.7190   43.8590   97.0340 O.2   445  LEU445     -0.2867
    170  CB        21.4540   42.9290   96.1640 C.3   445  LEU445      0.0270
    171  CG        22.0020   41.5580   95.7370 C.3   445  LEU445      0.0019
    172  CD1       22.5980   40.7460   96.9010 C.3   445  LEU445      0.0001
    173  CD2       20.9530   40.7590   94.9980 C.3   445  LEU445      0.0001
    174  N         28.7850   36.3590   98.0110 N.3   485  PHE485     -0.1241
    175  CA        27.6160   37.0230   97.3990 C.3   485  PHE485      0.1605
    176  C         26.3580   37.0100   98.2620 C.2   485  PHE485      0.2264
    177  O         25.8900   35.9580   98.7040 O.2   485  PHE485     -0.2867
    178  CB        27.3030   36.4570   96.0130 C.3   485  PHE485      0.0534
    179  CG        26.2240   37.2360   95.2890 C.ar  485  PHE485     -0.0203
    180  CD1       26.5130   38.4710   94.7080 C.ar  485  PHE485     -0.0042
    181  CD2       24.9240   36.7540   95.2350 C.ar  485  PHE485     -0.0042
    182  CE1       25.5020   39.2130   94.0490 C.ar  485  PHE485     -0.0003
    183  CE2       23.8980   37.4830   94.5810 C.ar  485  PHE485     -0.0003
    184  CZ        24.1940   38.7050   93.9890 C.ar  485  PHE485     -0.0000
    185  N         17.1240   42.6910  100.4900 N.3   491  SER491     -0.1217
    186  CA        17.8060   41.7960   99.5590 C.3   491  SER491      0.1889
    187  C         18.0500   40.4150  100.1960 C.2   491  SER491      0.2288
    188  O         18.5530   39.4980   99.5340 O.2   491  SER491     -0.2866
    189  CB        19.0960   42.4360   99.0230 C.3   491  SER491      0.2089
    190  OG        18.7630   43.5360   98.1900 O.3   491  SER491     -0.2183
    191  N         26.9720   33.3630   99.6480 N.3   497  THR497     -0.1218
    192  CA        27.3220   32.1970   98.8270 C.3   497  THR497      0.1862
    193  C         28.7610   32.2980   98.3590 C.2   497  THR497      0.2287
    194  O         29.2990   33.4010   98.2380 O.2   497  THR497     -0.2866
    195  CB        26.3820   32.0750   97.6070 C.3   497  THR497      0.1770
    196  OG1       26.6030   33.1730   96.7140 O.3   497  THR497     -0.2211
    197  CG2       24.9200   32.0350   98.0430 C.3   497  THR497      0.0375
@<TRIPOS>BOND
     1   130   131    2
     2   130   129    1
     3   128   129    1
     4   132   129    1
     5   132   133    1
     6   137   138    1
     7   139   140    2
     8   139   138    1
     9   138   141    1
    10   133   134    1
    11    25    23   ar
    12    25    26   ar
    13   158   157    2
    14    23    20   ar
    15    26    24   ar
    16   157   156    1
    17   141   142    1
    18   136   134   am
    19   134   135    2
    20    16    15    2
    21    30    29    2
    22   142   143    1
    23    20    22   ar
    24    20    18   ar
    25    24    22   ar
    26    22    21   ar
    27    17    18    1
    28    17    14    1
    29    28    29    1
    30    28    31    1
    31    28    27    1
    32    29    35   am
    33    18    19   ar
    34   143   144    1
    35    15    27   am
    36    15    14    1
    37   156   155    1
    38   156   159    1
    39    44    45   ar
    40    44    42   ar
    41    31    32    1
    42    45    43   ar
    43    14    13    1
    44    21    19   ar
    45    42    40   ar
    46    57    56    2
    47   161   163   ar
    48   161   160   ar
    49   159   160    1
    50    35    36    1
    51    36    37    1
    52    36    39    1
    53   163   165   ar
    54    43    41   ar
    55   160   162   ar
    56    37    38    2
    57   144   145    1
    58    40    41   ar
    59    40    39    1
    60    56    55    1
    61    32    34   am
    62    32    33    2
    63    13     8   am
    64   165   164   ar
    65   162   164   ar
    66    58    55    1
    67     9     8    2
    68    55    54    1
    69     8     7    1
    70   148   149    2
    71   148   147    1
    72   122   123    1
    73     7    10    1
    74     7     6    1
    75    46    47    1
    76   147   150    1
    77   147   146    1
    78   151   150    1
    79   151   152    1
    80    10    11    1
    81   123   124    1
    82   123   126    1
    83   124   125    2
    84    11    12    1
    85   152   153   ar
    86   152   154   ar
    87     6    12    1
    88     6     3   am
    89     4     3    2
    90    53    51    1
    91    51    50    1
    92    47    50    1
    93    47    48    1
    94    50    52    1
    95     3     2    1
    96   126   127    1
    97    48    49    2
    98     5     2    1
    99     2     1    1
   100    85    82    1
   101    85    86    1
   102   184   182   ar
   103   184   183   ar
   104   182   180   ar
   105    78    79    1
   106    78    77    1
   107    81    82    1
   108    81    79   am
   109    73    72    2
   110    82    83    1
   111   183   181   ar
   112    79    80    2
   113    76    74    1
   114   180   179   ar
   115   119   120    1
   116   119   118    1
   117   173   171    1
   118    72    77   am
   119    72    71    1
   120   120   121    2
   121   181   179   ar
   122   179   178    1
   123    74    71    1
   124    74    75    1
   125   101    99    1
   126   171   170    1
   127   171   172    1
   128   118   113   am
   129   178   175    1
   130    83    87   am
   131    83    84    2
   132   170   167    1
   133    71    70    1
   134    87    88    1
   135   168   169    2
   136   168   167    1
   137   114   113    2
   138   113   112    1
   139   196   195    1
   140    67    69   ar
   141    67    65   ar
   142    99   100    1
   143    99    96    1
   144    69    68   ar
   145    70    61   am
   146   167   166    1
   147   105   104    2
   148   175   174    1
   149   175   176    1
   150    95    96    1
   151   112   111    1
   152   112   115    1
   153   195   197    1
   154   195   192    1
   155    65    64   ar
   156    88    91    1
   157    88    89    1
   158    91    92    1
   159    68    66   ar
   160    96    97    1
   161   104   111   am
   162   104   103    1
   163    89    90    2
   164   190   189    1
   165   194   193    2
   166   176   177    2
   167    61    62    2
   168    61    60    1
   169   193   192    1
   170   106   103    1
   171   106   107    1
   172    64    66   ar
   173    64    63    1
   174   115   117    1
   175   115   116    1
   176   192   191    1
   177    94    92    1
   178    60    63    1
   179    60    59    1
   180   103   102    1
   181   189   186    1
   182    92    93    1
   183    97    98    2
   184   188   187    2
   185   186   187    1
   186   186   185    1
   187   107   108    1
   188   109   108   ar
   189   108   110   ar
