@<TRIPOS>MOLECULE
tmp/2eiwB03.pdb
 95 87 0 0 0
SMALL
GASTEIGER

@<TRIPOS>ATOM
      1  N         15.3790   39.5410  126.4950 N.3   180  ILE180     -0.1245
      2  CA        14.3860   39.1930  127.4880 C.3   180  ILE180      0.1561
      3  C         15.0360   38.1220  128.3520 C.2   180  ILE180      0.2260
      4  O         15.2670   37.0110  127.8920 O.2   180  ILE180     -0.2867
      5  CB        13.1010   38.7480  126.8050 C.3   180  ILE180      0.0252
      6  CG1       12.4700   39.9410  126.0490 C.3   180  ILE180      0.0019
      7  CG2       12.1180   38.1180  127.8260 C.3   180  ILE180      0.0019
      8  CD1       11.3880   39.4890  125.0410 C.3   180  ILE180      0.0001
      9  N         15.0230   43.7080  129.1160 N.3   207  LYS207     -0.1245
     10  CA        13.9220   43.5800  130.0460 C.3   207  LYS207      0.1561
     11  C         14.2780   42.4930  131.0450 C.2   207  LYS207      0.2260
     12  O         14.3210   41.3170  130.6710 O.2   207  LYS207     -0.2867
     13  CB        12.6200   43.1840  129.3370 C.3   207  LYS207      0.0271
     14  CG        11.4920   43.0940  130.3560 C.3   207  LYS207      0.0035
     15  CD        10.3170   42.2780  129.8360 C.3   207  LYS207      0.0206
     16  CE         9.5600   41.6170  130.9880 C.3   207  LYS207      0.1093
     17  NZ        10.0680   40.2330  131.3120 N.3   207  LYS207     -0.1314
     18  N          4.4040   41.9060  133.4570 N.3   240  GLY240     -0.1210
     19  CA         3.6400   41.1950  132.4210 C.3   240  GLY240      0.1956
     20  C          4.1610   41.3900  131.0010 C.2   240  GLY240      0.2611
     21  O          5.3600   41.6590  130.7950 O.2   240  GLY240     -0.2717
     22  N          3.2530   41.3040  130.0240 N.am  241  GLU241     -0.1979
     23  CA         3.6470   41.1780  128.6130 C.3   241  GLU241      0.1602
     24  C          3.8970   42.5110  127.9170 C.2   241  GLU241      0.2287
     25  O          4.6090   42.5500  126.9130 O.2   241  GLU241     -0.2864
     26  CB         2.6100   40.3560  127.8280 C.3   241  GLU241      0.0415
     27  CG         2.7770   38.8480  127.9730 C.3   241  GLU241      0.1163
     28  CD         1.6230   38.0500  127.3580 C.2   241  GLU241      0.3649
     29  OE1        1.6310   36.7990  127.4890 O.co2 241  GLU241     -0.2457
     30  OE2        0.7080   38.6640  126.7490 O.co2 241  GLU241     -0.2457
     31  N          7.6060   43.4870  126.5900 N.3   244  GLY244     -0.1210
     32  CA         8.1580   42.4220  125.7530 C.3   244  GLY244      0.1956
     33  C          7.3920   42.2410  124.4560 C.2   244  GLY244      0.2611
     34  O          8.0060   42.1410  123.3970 O.2   244  GLY244     -0.2717
     35  N          6.0500   42.2150  124.5240 N.am  245  ALA245     -0.1979
     36  CA         5.2310   42.0970  123.3140 C.3   245  ALA245      0.1597
     37  C          5.4190   43.2690  122.3590 C.2   245  ALA245      0.2287
     38  O          5.5160   43.0670  121.1370 O.2   245  ALA245     -0.2864
     39  CB         3.7530   41.9130  123.6490 C.3   245  ALA245      0.0319
     40  N          8.9910   42.9140  120.8160 N.3   248  VAL248     -0.1231
     41  CA         9.0830   41.7060  119.9480 C.3   248  VAL248      0.1692
     42  C          8.3580   41.9130  118.6210 C.2   248  VAL248      0.2591
     43  O          8.8730   41.5660  117.5690 O.2   248  VAL248     -0.2718
     44  CB         8.6200   40.4120  120.6670 C.3   248  VAL248      0.0266
     45  CG1        8.3990   39.2650  119.6780 C.3   248  VAL248      0.0020
     46  CG2        9.6820   39.9930  121.6910 C.3   248  VAL248      0.0020
     47  N          7.1860   42.5450  118.6730 N.am  249  GLU249     -0.1979
     48  CA         6.3440   42.7700  117.4890 C.3   249  GLU249      0.1602
     49  C          6.7130   44.0340  116.6990 C.2   249  GLU249      0.2287
     50  O          6.1940   44.2720  115.6110 O.2   249  GLU249     -0.2864
     51  CB         4.8720   42.8530  117.9270 C.3   249  GLU249      0.0415
     52  CG         4.3400   41.5310  118.5810 C.3   249  GLU249      0.1163
     53  CD         2.9930   41.7110  119.3140 C.2   249  GLU249      0.3649
     54  OE1        2.4890   42.8500  119.3810 O.co2 249  GLU249     -0.2457
     55  OE2        2.4390   40.7060  119.8310 O.co2 249  GLU249     -0.2457
     56  N         16.2840   35.7080  123.7050 N.3   258  PHE258     -0.1241
     57  CA        15.3870   35.3030  124.7610 C.3   258  PHE258      0.1605
     58  C         15.8800   34.0430  125.4490 C.2   258  PHE258      0.2264
     59  O         16.3300   33.1100  124.7710 O.2   258  PHE258     -0.2867
     60  CB        13.9760   35.0500  124.1990 C.3   258  PHE258      0.0534
     61  CG        13.0550   34.3150  125.1500 C.ar  258  PHE258     -0.0203
     62  CD1       12.4170   34.9990  126.1780 C.ar  258  PHE258     -0.0042
     63  CD2       12.8180   32.9360  125.0100 C.ar  258  PHE258     -0.0042
     64  CE1       11.5700   34.3520  127.0730 C.ar  258  PHE258     -0.0003
     65  CE2       11.9660   32.2790  125.8850 C.ar  258  PHE258     -0.0003
     66  CZ        11.3250   32.9870  126.9170 C.ar  258  PHE258     -0.0000
     67  N          6.6650   30.7980  126.1310 N.3   264  VAL264     -0.1245
     68  CA         6.9650   32.1480  125.6730 C.3   264  VAL264      0.1561
     69  C          7.8930   32.1070  124.4530 C.2   264  VAL264      0.2260
     70  O          7.7260   32.8950  123.5210 O.2   264  VAL264     -0.2867
     71  CB         7.5570   33.0160  126.8050 C.3   264  VAL264      0.0252
     72  CG1        7.9960   34.3930  126.2660 C.3   264  VAL264      0.0019
     73  CG2        6.5150   33.1730  127.9260 C.3   264  VAL264      0.0019
     74  N          6.0240   31.6630  121.2140 N.3   267  LYS267     -0.1231
     75  CA         5.3210   32.8650  120.7820 C.3   267  LYS267      0.1693
     76  C          6.2850   33.8560  120.1380 C.2   267  LYS267      0.2591
     77  O          5.9890   34.4420  119.0890 O.2   267  LYS267     -0.2718
     78  CB         4.5790   33.4900  121.9730 C.3   267  LYS267      0.0285
     79  CG         3.4120   32.5990  122.4760 C.3   267  LYS267      0.0035
     80  CD         2.7940   33.2350  123.7160 C.3   267  LYS267      0.0206
     81  CE         1.7310   32.3800  124.3900 C.3   267  LYS267      0.1093
     82  NZ         1.2640   33.1390  125.5730 N.3   267  LYS267     -0.1314
     83  N          7.4440   34.0300  120.7750 N.am  268  ILE268     -0.1980
     84  CA         8.5080   34.8850  120.2470 C.3   268  ILE268      0.1595
     85  C          8.9820   34.4340  118.8610 C.2   268  ILE268      0.2287
     86  O          9.0660   35.2360  117.9390 O.2   268  ILE268     -0.2864
     87  CB         9.6970   34.9920  121.2290 C.3   268  ILE268      0.0276
     88  CG1        9.2740   35.7890  122.4650 C.3   268  ILE268      0.0022
     89  CG2       10.8970   35.6580  120.5600 C.3   268  ILE268      0.0022
     90  CD1       10.3230   35.8920  123.5780 C.3   268  ILE268      0.0001
     91  N          6.3330   35.2120  116.2180 N.3   271  ALA271     -0.1245
     92  CA         6.1760   36.6570  115.9910 C.3   271  ALA271      0.1562
     93  C          7.3410   37.2010  115.1770 C.2   271  ALA271      0.2260
     94  O          7.1610   38.0820  114.2880 O.2   271  ALA271     -0.2867
     95  CB         6.0890   37.3880  117.3190 C.3   271  ALA271      0.0290
@<TRIPOS>BOND
     1    94    93    2
     2    93    92    1
     3    50    49    2
     4    92    91    1
     5    92    95    1
     6    49    48    1
     7    48    51    1
     8    48    47    1
     9    43    42    2
    10    51    52    1
    11    86    85    2
    12    52    53    1
    13    42    47   am
    14    42    41    1
    15    85    84    1
    16    77    76    2
    17    53    54   ar
    18    53    55   ar
    19    45    44    1
    20    41    44    1
    21    41    40    1
    22    76    83   am
    23    76    75    1
    24    84    83    1
    25    84    87    1
    26    89    87    1
    27    44    46    1
    28    75    74    1
    29    75    78    1
    30    38    37    2
    31    87    88    1
    32    78    79    1
    33    37    36    1
    34    88    90    1
    35    79    80    1
    36    36    39    1
    37    36    35    1
    38    34    33    2
    39    70    69    2
    40    56    57    1
    41    80    81    1
    42    60    57    1
    43    60    61    1
    44    81    82    1
    45    69    68    1
    46    33    35   am
    47    33    32    1
    48    57    58    1
    49    59    58    2
    50    63    61   ar
    51    63    65   ar
    52     8     6    1
    53    61    62   ar
    54    68    67    1
    55    68    71    1
    56    32    31    1
    57    65    66   ar
    58     6     5    1
    59    62    64   ar
    60    72    71    1
    61     1     2    1
    62    30    28   ar
    63     5     2    1
    64     5     7    1
    65    71    73    1
    66    25    24    2
    67    66    64   ar
    68    28    29   ar
    69    28    27    1
    70     2     3    1
    71    26    27    1
    72    26    23    1
    73     4     3    2
    74    24    23    1
    75    23    22    1
    76     9    10    1
    77    13    10    1
    78    13    14    1
    79    15    14    1
    80    15    16    1
    81    22    20   am
    82    10    11    1
    83    12    11    2
    84    21    20    2
    85    16    17    1
    86    20    19    1
    87    19    18    1
