@<TRIPOS>MOLECULE
tmp/2eiwB00.pdb
 102 97 0 0 0
SMALL
GASTEIGER

@<TRIPOS>ATOM
      1  N         30.1250   33.4780  136.3790 N.3   137  GLU137     -0.1245
      2  CA        29.7150   33.2430  134.9830 C.3   137  GLU137      0.1567
      3  C         29.4420   34.5420  134.1940 C.2   137  GLU137      0.2260
      4  O         29.7590   34.6400  133.0010 O.2   137  GLU137     -0.2867
      5  CB        28.4770   32.3370  134.9360 C.3   137  GLU137      0.0388
      6  CG        28.0690   31.9430  133.5120 C.3   137  GLU137      0.1160
      7  CD        26.9280   30.9130  133.4670 C.2   137  GLU137      0.3649
      8  OE1       26.6160   30.3060  134.4960 O.co2 137  GLU137     -0.2457
      9  OE2       26.3660   30.6740  132.3900 O.co2 137  GLU137     -0.2457
     10  N         31.3500   35.8020  130.9120 N.3   141  PHE141     -0.1241
     11  CA        30.7840   36.1810  129.6030 C.3   141  PHE141      0.1605
     12  C         31.4280   37.4510  129.0660 C.2   141  PHE141      0.2264
     13  O         31.7670   37.5450  127.8850 O.2   141  PHE141     -0.2867
     14  CB        29.2990   36.4430  129.6900 C.3   141  PHE141      0.0534
     15  CG        28.4640   35.2100  129.6660 C.ar  141  PHE141     -0.0203
     16  CD1       27.4730   35.0130  130.6440 C.ar  141  PHE141     -0.0042
     17  CD2       28.6310   34.2540  128.6510 C.ar  141  PHE141     -0.0042
     18  CE1       26.6760   33.8750  130.6240 C.ar  141  PHE141     -0.0003
     19  CE2       27.8350   33.1190  128.6200 C.ar  141  PHE141     -0.0003
     20  CZ        26.8580   32.9250  129.6120 C.ar  141  PHE141     -0.0000
     21  N         19.1760   32.9560  136.3850 N.3   185  PHE185     -0.1241
     22  CA        20.5550   33.4360  136.2880 C.3   185  PHE185      0.1605
     23  C         20.5310   34.9230  135.9320 C.2   185  PHE185      0.2264
     24  O         20.9000   35.3070  134.8200 O.2   185  PHE185     -0.2867
     25  CB        21.3560   32.6200  135.2690 C.3   185  PHE185      0.0534
     26  CG        21.6030   31.2160  135.7260 C.ar  185  PHE185     -0.0203
     27  CD1       20.6950   30.2110  135.3980 C.ar  185  PHE185     -0.0042
     28  CD2       22.6980   30.9150  136.5500 C.ar  185  PHE185     -0.0042
     29  CE1       20.8830   28.9100  135.8410 C.ar  185  PHE185     -0.0003
     30  CE2       22.9030   29.5920  137.0140 C.ar  185  PHE185     -0.0003
     31  CZ        21.9790   28.6040  136.6640 C.ar  185  PHE185     -0.0000
     32  N         23.1650   35.2420  132.9100 N.3   189  ILE189     -0.1245
     33  CA        22.5050   35.1660  131.5930 C.3   189  ILE189      0.1561
     34  C         22.0370   36.5380  131.1550 C.2   189  ILE189      0.2260
     35  O         22.1500   36.8910  129.9820 O.2   189  ILE189     -0.2867
     36  CB        21.3600   34.1010  131.5750 C.3   189  ILE189      0.0252
     37  CG1       22.0030   32.7080  131.6490 C.3   189  ILE189      0.0019
     38  CG2       20.5190   34.1870  130.2760 C.3   189  ILE189      0.0019
     39  CD1       21.0170   31.5090  131.5370 C.3   189  ILE189      0.0001
     40  N         16.7300   25.2790  137.2250 N.3   321  LYS321     -0.1231
     41  CA        17.7420   25.4580  136.1670 C.3   321  LYS321      0.1693
     42  C         17.2790   24.7460  134.9280 C.2   321  LYS321      0.2592
     43  O         16.7160   23.6500  135.0150 O.2   321  LYS321     -0.2718
     44  CB        19.0940   24.8600  136.5790 C.3   321  LYS321      0.0285
     45  CG        19.6790   25.4390  137.8470 C.3   321  LYS321      0.0035
     46  CD        21.1240   24.9910  138.0230 C.3   321  LYS321      0.0206
     47  CE        21.7230   25.6040  139.2720 C.3   321  LYS321      0.1093
     48  NZ        23.1310   25.1690  139.5070 N.3   321  LYS321     -0.1314
     49  N         17.5440   25.3470  133.7670 N.am  322  CYS322     -0.1956
     50  CA        17.2190   24.7300  132.4750 C.3   322  CYS322      0.1843
     51  C         18.0630   23.4720  132.2210 C.2   322  CYS322      0.2626
     52  O         17.6740   22.5990  131.4270 O.2   322  CYS322     -0.2714
     53  CB        17.3700   25.7380  131.3480 C.3   322  CYS322      0.0997
     54  SG        18.6390   27.0210  131.6050 S.3   322  CYS322     -0.0797
     55  N         19.1590   23.3770  132.9790 N.am  323  SER323     -0.1950
     56  CA        20.1140   22.2470  132.9580 C.3   323  SER323      0.1924
     57  C         19.9290   21.2010  134.0610 C.2   323  SER323      0.2314
     58  O         20.6130   20.1720  134.0460 O.2   323  SER323     -0.2863
     59  CB        21.5200   22.7730  133.1160 C.3   323  SER323      0.2116
     60  OG        21.5880   23.5490  134.3050 O.3   323  SER323     -0.2180
     61  N         25.5310   17.6390  135.5610 N.3   475  ILE475     -0.1231
     62  CA        25.1200   18.1290  134.2330 C.3   475  ILE475      0.1692
     63  C         24.7710   19.6210  134.2260 C.2   475  ILE475      0.2593
     64  O         24.3520   20.1530  133.2150 O.2   475  ILE475     -0.2718
     65  CB        23.9490   17.3220  133.6400 C.3   475  ILE475      0.0266
     66  CG1       22.7120   17.4990  134.5190 C.3   475  ILE475      0.0019
     67  CG2       24.3470   15.8300  133.5180 C.3   475  ILE475      0.0020
     68  CD1       21.4310   16.9770  133.8530 C.3   475  ILE475      0.0001
     69  N         24.9790   20.2790  135.3570 N.am  476  THR476     -0.1939
     70  CA        24.6850   21.6930  135.4840 C.3   476  THR476      0.2028
     71  C         26.0200   22.4470  135.4970 C.2   476  THR476      0.2643
     72  O         27.0890   21.8200  135.5320 O.2   476  THR476     -0.2714
     73  CB        23.9050   21.9840  136.8000 C.3   476  THR476      0.1808
     74  OG1       24.6420   21.4700  137.9100 O.3   476  THR476     -0.2208
     75  CG2       22.4770   21.3440  136.8110 C.3   476  THR476      0.0379
     76  N         25.9590   23.7780  135.4670 N.am  477  GLY477     -0.1939
     77  CA        27.1480   24.6060  135.6980 C.3   477  GLY477      0.2014
     78  C         28.1450   24.6500  134.5480 C.2   477  GLY477      0.2638
     79  O         29.3620   24.7010  134.7660 O.2   477  GLY477     -0.2714
     80  N         27.6280   24.6390  133.3220 N.am  478  ALA478     -0.1977
     81  CA        28.4400   24.7520  132.1240 C.3   478  ALA478      0.1597
     82  C         29.2580   26.0240  132.2310 C.2   478  ALA478      0.2287
     83  O         28.7210   27.0680  132.5570 O.2   478  ALA478     -0.2864
     84  CB        27.5520   24.7770  130.8920 C.3   478  ALA478      0.0319
     85  N         27.1460   26.5170  125.4070 N.3   485  PHE485     -0.1241
     86  CA        25.8800   26.1290  126.0430 C.3   485  PHE485      0.1605
     87  C         24.6340   26.4380  125.2060 C.2   485  PHE485      0.2264
     88  O         24.3990   27.5700  124.8240 O.2   485  PHE485     -0.2867
     89  CB        25.7540   26.7160  127.4660 C.3   485  PHE485      0.0534
     90  CG        24.5460   26.2160  128.2060 C.ar  485  PHE485     -0.0203
     91  CD1       24.5880   25.0000  128.8800 C.ar  485  PHE485     -0.0042
     92  CD2       23.3550   26.9560  128.2020 C.ar  485  PHE485     -0.0042
     93  CE1       23.4600   24.5280  129.5630 C.ar  485  PHE485     -0.0003
     94  CE2       22.2170   26.4910  128.8770 C.ar  485  PHE485     -0.0003
     95  CZ        22.2700   25.2810  129.5600 C.ar  485  PHE485     -0.0000
     96  N         26.0030   29.8580  123.8290 N.3   497  THR497     -0.1218
     97  CA        26.5860   30.8930  124.6830 C.3   497  THR497      0.1862
     98  C         27.9720   30.4750  125.1450 C.2   497  THR497      0.2287
     99  O         28.2700   29.2710  125.2690 O.2   497  THR497     -0.2866
    100  CB        25.7010   31.2100  125.9260 C.3   497  THR497      0.1770
    101  OG1       25.6790   30.0770  126.8060 O.3   497  THR497     -0.2211
    102  CG2       24.2710   31.5910  125.5110 C.3   497  THR497      0.0375
@<TRIPOS>BOND
     1    96    97    1
     2    97    98    1
     3    97   100    1
     4    88    87    2
     5    98    99    2
     6    87    86    1
     7    85    86    1
     8   102   100    1
     9   100   101    1
    10    86    89    1
    11    89    90    1
    12    13    12    2
    13    92    90   ar
    14    92    94   ar
    15    90    91   ar
    16    19    17   ar
    17    19    20   ar
    18    17    15   ar
    19    94    95   ar
    20    91    93   ar
    21    12    11    1
    22    95    93   ar
    23    11    14    1
    24    11    10    1
    25    20    18   ar
    26    15    14    1
    27    15    16   ar
    28    35    34    2
    29    38    36    1
    30    18    16   ar
    31    84    81    1
    32    34    33    1
    33    53    54    1
    34    53    50    1
    35    52    51    2
    36    39    37    1
    37    36    33    1
    38    36    37    1
    39    33    32    1
    40    81    82    1
    41    81    80    1
    42    51    50    1
    43    51    55   am
    44    82    83    2
    45     9     7   ar
    46    50    49    1
    47    56    55    1
    48    56    59    1
    49    56    57    1
    50     4     3    2
    51    59    60    1
    52    64    63    2
    53    80    78   am
    54     7     6    1
    55     7     8   ar
    56     6     5    1
    57    67    65    1
    58    65    62    1
    59    65    66    1
    60    49    42   am
    61    68    66    1
    62    58    57    2
    63     3     2    1
    64    63    62    1
    65    63    69   am
    66    62    61    1
    67    78    79    2
    68    78    77    1
    69    24    23    2
    70    42    43    2
    71    42    41    1
    72     5     2    1
    73     2     1    1
    74    25    26    1
    75    25    22    1
    76    69    70    1
    77    27    26   ar
    78    27    29   ar
    79    76    71   am
    80    76    77    1
    81    70    71    1
    82    70    73    1
    83    71    72    2
    84    26    28   ar
    85    29    31   ar
    86    23    22    1
    87    41    44    1
    88    41    40    1
    89    22    21    1
    90    28    30   ar
    91    44    45    1
    92    31    30   ar
    93    73    75    1
    94    73    74    1
    95    45    46    1
    96    46    47    1
    97    47    48    1
