@<TRIPOS>MOLECULE
tmp/2eixA00.pdb
 175 173 0 0 0
SMALL
GASTEIGER

@<TRIPOS>ATOM
      1  N         12.0010    1.6160   -6.8380 N.3    47  HIS47      -0.1241
      2  CA        11.2450    2.2650   -7.8880 C.3    47  HIS47       0.1621
      3  C         10.5560    3.5080   -7.4080 C.2    47  HIS47       0.2264
      4  O         10.5300    3.7700   -6.1850 O.2    47  HIS47      -0.2867
      5  CB        10.2300    1.2660   -8.5790 C.3    47  HIS47       0.0745
      6  CG         9.3050    0.5680   -7.6230 C.ar   47  HIS47       0.0817
      7  ND1        8.1100    1.1060   -7.1630 N.ar   47  HIS47      -0.2268
      8  CD2        9.3990   -0.6690   -7.0990 C.ar   47  HIS47       0.1154
      9  CE1        7.5550    0.2420   -6.3320 C.ar   47  HIS47       0.1986
     10  NE2        8.3190   -0.8330   -6.2740 N.ar   47  HIS47      -0.2212
     11  N          0.6860    3.8310  -10.0490 N.3    61  ARG61      -0.1231
     12  CA         1.4910    2.7940  -10.6740 C.3    61  ARG61       0.1679
     13  C          3.0020    2.9880  -10.4320 C.2    61  ARG61       0.2434
     14  O          3.4710    4.0990  -10.3690 O.2    61  ARG61      -0.2733
     15  CB         1.3660    2.8540  -12.2250 C.3    61  ARG61       0.0321
     16  CG        -0.0270    2.7590  -12.8090 C.3    61  ARG61       0.0489
     17  CD        -0.7230    1.3780  -12.6720 C.3    61  ARG61       0.2205
     18  NE        -1.9570    1.4180  -13.4630 N.pl3  61  ARG61      -0.0865
     19  CZ        -3.1360    1.6600  -12.9480 C.cat  61  ARG61       0.5346
     20  NH1       -4.1880    1.7130  -13.7110 N.pl3  61  ARG61       0.1354
     21  NH2       -3.2660    1.7990  -11.6390 N.pl3  61  ARG61       0.1354
     22  N          3.7500    1.8720  -10.3640 N.am   62  PRO62      -0.2718
     23  CA         5.2150    1.9580  -10.2800 C.3    62  PRO62       0.1535
     24  C          5.9400    2.1010  -11.5970 C.2    62  PRO62       0.2599
     25  O          5.4990    1.5500  -12.5940 O.2    62  PRO62      -0.2715
     26  CB         5.5600    0.6420   -9.5160 C.3    62  PRO62       0.0310
     27  CG         4.5230   -0.3390  -10.0280 C.3    62  PRO62       0.0237
     28  CD         3.2450    0.4910  -10.1270 C.3    62  PRO62       0.0939
     29  N          7.0480    2.8100  -11.5560 N.am   63  TYR63      -0.1960
     30  CA         7.9320    2.9450  -12.7100 C.3    63  TYR63       0.1771
     31  C          9.3780    2.9650  -12.2510 C.2    63  TYR63       0.2620
     32  O          9.7090    3.4520  -11.1910 O.2    63  TYR63      -0.2715
     33  CB         7.6620    4.2490  -13.5820 C.3    63  TYR63       0.0574
     34  CG         6.2790    4.1970  -14.1970 C.ar   63  TYR63      -0.0198
     35  CD1        6.0360    3.4820  -15.3740 C.ar   63  TYR63      -0.0009
     36  CD2        5.1800    4.7860  -13.5320 C.ar   63  TYR63      -0.0009
     37  CE1        4.7840    3.3420  -15.8110 C.ar   63  TYR63       0.0417
     38  CE2        3.9050    4.6840  -14.0250 C.ar   63  TYR63       0.0417
     39  CZ         3.7050    3.9710  -15.1810 C.ar   63  TYR63       0.1957
     40  OH         2.3880    3.7960  -15.6120 O.3    63  TYR63      -0.2866
     41  N         10.2560    2.5240  -13.1210 N.am   64  THR64      -0.1951
     42  CA        11.7110    2.5690  -12.8530 C.3    64  THR64       0.1897
     43  C         12.3270    3.3580  -14.0020 C.2    64  THR64       0.2313
     44  O         12.2610    2.9160  -15.1510 O.2    64  THR64      -0.2863
     45  CB        12.2860    1.1340  -12.8490 C.3    64  THR64       0.1794
     46  OG1       11.6480    0.3850  -11.7860 O.3    64  THR64      -0.2208
     47  CG2       13.7820    1.2000  -12.5510 C.3    64  THR64       0.0378
     48  N         11.6900    8.1280  -18.3870 N.3    77  LEU77      -0.1231
     49  CA        10.8160    6.9280  -18.3520 C.3    77  LEU77       0.1693
     50  C         10.5550    6.4830  -19.7850 C.2    77  LEU77       0.2592
     51  O         10.2010    7.3080  -20.5440 O.2    77  LEU77      -0.2718
     52  CB         9.4670    7.1960  -17.5960 C.3    77  LEU77       0.0284
     53  CG         9.5630    7.8070  -16.2210 C.3    77  LEU77       0.0019
     54  CD1        8.1790    7.9700  -15.7160 C.3    77  LEU77       0.0001
     55  CD2       10.3230    6.8750  -15.2740 C.3    77  LEU77       0.0001
     56  N         10.7520    5.1910  -20.0350 N.am   78  ILE78      -0.1966
     57  CA        10.2870    4.6040  -21.2570 C.3    78  ILE78       0.1727
     58  C          8.9880    3.8970  -20.9130 C.2    78  ILE78       0.2616
     59  O          8.9130    3.0690  -20.0330 O.2    78  ILE78      -0.2715
     60  CB        11.3610    3.6350  -21.8100 C.3    78  ILE78       0.0290
     61  CG1       10.9890    3.0970  -23.2000 C.3    78  ILE78       0.0022
     62  CG2       11.6110    2.4050  -20.9530 C.3    78  ILE78       0.0023
     63  CD1       12.3220    2.6950  -24.0040 C.3    78  ILE78       0.0001
     64  N          7.9190    4.2390  -21.6320 N.am   79  ILE79      -0.1963
     65  CA         6.5870    3.8160  -21.2250 C.3    79  ILE79       0.1727
     66  C          5.8730    3.2070  -22.4780 C.2    79  ILE79       0.2616
     67  O          5.7880    3.8410  -23.5260 O.2    79  ILE79      -0.2715
     68  CB         5.8040    5.0000  -20.5830 C.3    79  ILE79       0.0290
     69  CG1        6.3150    5.2520  -19.1130 C.3    79  ILE79       0.0022
     70  CG2        4.3040    4.6810  -20.4880 C.3    79  ILE79       0.0023
     71  CD1        5.7870    6.4230  -18.5180 C.3    79  ILE79       0.0001
     72  N          5.3660    1.9930  -22.3050 N.am   80  LYS80      -0.1977
     73  CA         4.5130    1.3490  -23.3210 C.3    80  LYS80       0.1596
     74  C          3.0960    1.8560  -23.0770 C.2    80  LYS80       0.2287
     75  O          2.5760    1.8030  -21.9360 O.2    80  LYS80      -0.2864
     76  CB         4.6140   -0.1470  -23.2300 C.3    80  LYS80       0.0298
     77  CG         3.8160   -0.8710  -24.3550 C.3    80  LYS80       0.0038
     78  CD         3.9290   -2.3470  -24.2630 C.3    80  LYS80       0.0206
     79  CE         5.4230   -2.7390  -24.3150 C.3    80  LYS80       0.1093
     80  NZ         5.5410   -4.1600  -24.8710 N.3    80  LYS80      -0.1314
     81  N         -0.7940    1.4180  -23.5010 N.3    82  TYR82      -0.1227
     82  CA        -1.8180    0.4070  -23.7440 C.3    82  TYR82       0.1736
     83  C         -3.1650    1.0530  -24.0950 C.2    82  TYR82       0.2595
     84  O         -3.5040    2.1470  -23.6100 O.2    82  TYR82      -0.2718
     85  CB        -2.0170   -0.3650  -22.4280 C.3    82  TYR82       0.0548
     86  CG        -0.8520   -1.1770  -22.0610 C.ar   82  TYR82      -0.0200
     87  CD1       -0.7250   -2.5080  -22.5020 C.ar   82  TYR82      -0.0009
     88  CD2        0.1230   -0.6600  -21.2030 C.ar   82  TYR82      -0.0009
     89  CE1        0.4330   -3.2810  -22.1770 C.ar   82  TYR82       0.0417
     90  CE2        1.2350   -1.4150  -20.8640 C.ar   82  TYR82       0.0417
     91  CZ         1.3940   -2.7040  -21.3400 C.ar   82  TYR82       0.1957
     92  OH         2.5510   -3.4230  -20.9640 O.3    82  TYR82      -0.2866
     93  N         -3.9120    0.3700  -24.9660 N.am   83  GLU83      -0.1965
     94  CA        -5.1910    0.9040  -25.4480 C.3    83  GLU83       0.1733
     95  C         -6.1990    1.2770  -24.3410 C.2    83  GLU83       0.2616
     96  O         -6.8780    2.3340  -24.4220 O.2    83  GLU83      -0.2715
     97  CB        -5.8090   -0.1140  -26.4190 C.3    83  GLU83       0.0429
     98  CG        -5.7100   -1.5820  -25.9060 C.3    83  GLU83       0.1163
     99  CD        -6.4890   -2.6290  -26.7660 C.2    83  GLU83       0.3649
    100  OE1       -6.5760   -3.8350  -26.3390 O.co2  83  GLU83      -0.2457
    101  OE2       -7.0040   -2.2300  -27.8590 O.co2  83  GLU83      -0.2457
    102  N         -6.2880    0.4510  -23.3080 N.am   84  LYS84      -0.1963
    103  CA        -7.1920    0.7290  -22.1980 C.3    84  LYS84       0.1728
    104  C         -6.3970    0.7780  -20.9130 C.2    84  LYS84       0.2617
    105  O         -6.8740    0.3610  -19.8670 O.2    84  LYS84      -0.2715
    106  CB        -8.3020   -0.3460  -22.0240 C.3    84  LYS84       0.0311
    107  CG        -9.3040   -0.4660  -23.1770 C.3    84  LYS84       0.0038
    108  CD       -10.4050    0.6060  -23.1300 C.3    84  LYS84       0.0206
    109  CE       -11.6550    0.0260  -23.8540 C.3    84  LYS84       0.1093
    110  NZ       -12.7920    0.9490  -23.7700 N.3    84  LYS84      -0.1314
    111  N         -5.1760    1.2900  -21.0210 N.am   85  GLY85      -0.1940
    112  CA        -4.2660    1.4030  -19.8360 C.3    85  GLY85       0.2014
    113  C         -4.4420    2.8370  -19.3210 C.2    85  GLY85       0.2639
    114  O         -4.0550    3.7920  -20.0310 O.2    85  GLY85      -0.2714
    115  N         -5.0530    3.0330  -18.1450 N.am   86  GLN86      -0.1963
    116  CA        -5.3370    4.3870  -17.6810 C.3    86  GLN86       0.1733
    117  C         -4.0680    5.2670  -17.4690 C.2    86  GLN86       0.2616
    118  O         -4.0470    6.4530  -17.8070 O.2    86  GLN86      -0.2715
    119  CB        -6.1350    4.3370  -16.3540 C.3    86  GLN86       0.0408
    120  CG        -7.5830    3.8360  -16.6360 C.3    86  GLN86       0.0908
    121  CD        -8.4600    4.1120  -15.4410 C.2    86  GLN86       0.2608
    122  OE1       -8.4380    3.3990  -14.4420 O.2    86  GLN86      -0.2717
    123  NE2       -9.2330    5.1580  -15.5500 N.am   86  GLN86      -0.0878
    124  N         -3.0660    4.7020  -16.7670 N.am   87  MET87      -0.1963
    125  CA        -1.9210    5.5290  -16.4710 C.3    87  MET87       0.1736
    126  C         -1.0420    5.8570  -17.6790 C.2    87  MET87       0.2617
    127  O         -0.5960    6.9770  -17.7960 O.2    87  MET87      -0.2715
    128  CB        -1.0650    4.8580  -15.4060 C.3    87  MET87       0.0427
    129  CG         0.1260    5.7670  -14.9070 C.3    87  MET87       0.0599
    130  SD        -0.4630    7.2950  -14.0630 S.3    87  MET87      -0.1393
    131  CE        -0.5420    6.6160  -12.3800 C.3    87  MET87       0.0692
    132  N         -0.7980    4.8430  -18.5270 N.am   88  SER88      -0.1950
    133  CA         0.0710    5.0140  -19.7140 C.3    88  SER88       0.1924
    134  C         -0.6360    5.9550  -20.6610 C.2    88  SER88       0.2314
    135  O          0.0120    6.8580  -21.2330 O.2    88  SER88      -0.2863
    136  CB         0.3880    3.6630  -20.3580 C.3    88  SER88       0.2116
    137  OG        -0.7410    3.0020  -20.8550 O.3    88  SER88      -0.2180
    138  N          8.3850   -3.8380  -20.8720 N.3   126  THR126     -0.1218
    139  CA         9.0030   -2.8500  -20.0070 C.3   126  THR126      0.1862
    140  C          9.4450   -3.4510  -18.6740 C.2   126  THR126      0.2287
    141  O         10.0380   -2.7170  -17.8700 O.2   126  THR126     -0.2866
    142  CB         8.0100   -1.7010  -19.7140 C.3   126  THR126      0.1770
    143  OG1        6.8280   -2.3300  -19.1900 O.3   126  THR126     -0.2211
    144  CG2        7.7250   -0.9230  -21.0020 C.3   126  THR126      0.0375
    145  N         13.0080   -2.6230  -17.2790 N.3   129  THR129     -0.1204
    146  CA        13.5880   -1.4840  -16.5410 C.3   129  THR129      0.1979
    147  C         14.1110   -1.7550  -15.1160 C.2   129  THR129      0.2459
    148  O         15.2310   -1.2820  -14.8080 O.2   129  THR129     -0.2732
    149  CB        12.7550   -0.1700  -16.6390 C.3   129  THR129      0.1783
    150  OG1       11.4960   -0.3550  -16.0550 O.3   129  THR129     -0.2211
    151  CG2       12.4560    0.1500  -18.0850 C.3   129  THR129      0.0376
    152  N         13.3330   -2.4950  -14.2950 N.am  130  PRO130     -0.2728
    153  CA        13.9550   -2.8550  -13.0530 C.3   130  PRO130      0.1401
    154  C         15.1670   -3.7580  -13.1720 C.2   130  PRO130      0.2269
    155  O         16.0520   -3.6910  -12.2620 O.2   130  PRO130     -0.2865
    156  CB        12.8460   -3.5940  -12.2690 C.3   130  PRO130      0.0296
    157  CG        11.6300   -3.5230  -13.0950 C.3   130  PRO130      0.0237
    158  CD        11.9700   -3.0210  -14.4430 C.3   130  PRO130      0.0939
    159  N          9.9290   -9.6160  -13.9880 N.3   217  CYS217     -0.1235
    160  CA         8.9690   -8.5120  -14.1550 C.3   217  CYS217      0.1677
    161  C          8.4190   -8.6050  -15.5490 C.2   217  CYS217      0.2270
    162  O          9.1580   -8.7600  -16.4170 O.2   217  CYS217     -0.2867
    163  CB         9.5980   -7.1430  -13.9180 C.3   217  CYS217      0.0956
    164  SG         8.3440   -5.8480  -13.5680 S.3   217  CYS217     -0.0801
    165  N          9.1060   -8.2500   -9.0750 N.3   243  PHE243     -0.1241
    166  CA         9.0250   -6.8160   -8.8130 C.3   243  PHE243      0.1605
    167  C          7.5770   -6.2550   -8.5220 C.2   243  PHE243      0.2264
    168  O          7.3560   -5.3310   -7.6770 O.2   243  PHE243     -0.2867
    169  CB         9.7770   -5.9950   -9.8760 C.3   243  PHE243      0.0534
    170  CG        11.2740   -6.0620   -9.7370 C.ar  243  PHE243     -0.0203
    171  CD1       11.9820   -5.1540   -8.9450 C.ar  243  PHE243     -0.0042
    172  CD2       11.9830   -7.0580  -10.3530 C.ar  243  PHE243     -0.0042
    173  CE1       13.3750   -5.2010   -8.8470 C.ar  243  PHE243     -0.0003
    174  CE2       13.4110   -7.1100  -10.2510 C.ar  243  PHE243     -0.0003
    175  CZ        14.0960   -6.1800   -9.4820 C.ar  243  PHE243     -0.0000
@<TRIPOS>BOND
     1   101    99   ar
     2    99   100   ar
     3    99    98    1
     4    97    98    1
     5    97    94    1
     6    94    93    1
     7    94    95    1
     8    93    83   am
     9    80    79    1
    10    96    95    2
    11    77    78    1
    12    77    76    1
    13    95   102   am
    14    79    78    1
    15    83    82    1
    16    83    84    2
    17    63    61    1
    18   109   110    1
    19   109   108    1
    20    82    81    1
    21    82    85    1
    22    67    66    2
    23    73    76    1
    24    73    74    1
    25    73    72    1
    26   102   103    1
    27    61    60    1
    28   107   108    1
    29   107   106    1
    30    74    75    2
    31    87    89   ar
    32    87    86   ar
    33    66    72   am
    34    66    65    1
    35    85    86    1
    36   103   106    1
    37   103   104    1
    38    89    91   ar
    39    86    88   ar
    40    60    57    1
    41    60    62    1
    42    64    65    1
    43    64    58   am
    44    91    92    1
    45    91    90   ar
    46    57    58    1
    47    57    56    1
    48   135   134    2
    49    65    68    1
    50    88    90   ar
    51   111   104   am
    52   111   112    1
    53   144   142    1
    54   104   105    2
    55    58    59    2
    56   138   139    1
    57   137   136    1
    58   134   133    1
    59    68    70    1
    60    68    69    1
    61    51    50    2
    62   136   133    1
    63    56    50   am
    64   114   113    2
    65   139   142    1
    66   139   140    1
    67   112   113    1
    68    50    49    1
    69   133   132    1
    70   142   143    1
    71   113   115   am
    72    69    71    1
    73   140   141    2
    74   132   126   am
    75    48    49    1
    76    49    52    1
    77   115   116    1
    78   151   149    1
    79   118   117    2
    80   127   126    2
    81   116   117    1
    82   116   119    1
    83   126   125    1
    84    52    53    1
    85   117   124   am
    86   145   146    1
    87   124   125    1
    88   149   146    1
    89   149   150    1
    90   120   119    1
    91   120   121    1
    92   146   147    1
    93   125   128    1
    94   162   161    2
    95    53    54    1
    96    53    55    1
    97    37    35   ar
    98    37    39   ar
    99    40    39    1
   100   123   121   am
   101   161   160    1
   102   121   122    2
   103   128   129    1
   104    35    34   ar
   105    39    38   ar
   106    44    43    2
   107   147   148    2
   108   147   152   am
   109   129   130    1
   110   158   152    1
   111   158   157    1
   112   152   153    1
   113    34    33    1
   114    34    36   ar
   115   160   159    1
   116   160   163    1
   117   130   131    1
   118    38    36   ar
   119    43    42    1
   120   163   164    1
   121    20    19    1
   122    33    30    1
   123    18    19    2
   124    18    17    1
   125   154   153    1
   126   154   155    2
   127    41    42    1
   128    41    31   am
   129   157   156    1
   130   153   156    1
   131    19    21    1
   132    42    45    1
   133    45    47    1
   134    45    46    1
   135    16    17    1
   136    16    15    1
   137    30    31    1
   138    30    29    1
   139    25    24    2
   140    31    32    2
   141    15    12    1
   142    24    29   am
   143    24    23    1
   144    12    13    1
   145    12    11    1
   146    13    14    2
   147    13    22   am
   148    22    23    1
   149    22    28    1
   150   172   174   ar
   151   172   170   ar
   152    23    26    1
   153   174   175   ar
   154    28    27    1
   155    27    26    1
   156   169   170    1
   157   169   166    1
   158   170   171   ar
   159   175   173   ar
   160   165   166    1
   161   171   173   ar
   162   166   167    1
   163     5     2    1
   164     5     6    1
   165   167   168    2
   166     2     3    1
   167     2     1    1
   168     6     7   ar
   169     6     8   ar
   170     3     4    2
   171     7     9   ar
   172     8    10   ar
   173     9    10   ar
