@<TRIPOS>MOLECULE
tmp/2eiyB01.pdb
 96 90 0 0 0
SMALL
GASTEIGER

@<TRIPOS>ATOM
      1  N         62.1590   67.2420   31.9120 N.3    34  PHE34      -0.1241
      2  CA        62.4640   66.3890   33.0470 C.3    34  PHE34       0.1605
      3  C         61.2630   66.2050   33.9480 C.2    34  PHE34       0.2264
      4  O         60.2080   66.8030   33.7380 O.2    34  PHE34      -0.2867
      5  CB        63.6300   66.9870   33.8550 C.3    34  PHE34       0.0534
      6  CG        63.2980   68.2890   34.5480 C.ar   34  PHE34      -0.0203
      7  CD1       62.7410   68.2950   35.8240 C.ar   34  PHE34      -0.0042
      8  CD2       63.5370   69.5090   33.9180 C.ar   34  PHE34      -0.0042
      9  CE1       62.4260   69.4950   36.4650 C.ar   34  PHE34      -0.0003
     10  CE2       63.2250   70.7130   34.5510 C.ar   34  PHE34      -0.0003
     11  CZ        62.6690   70.7070   35.8230 C.ar   34  PHE34      -0.0000
     12  N         60.1870   65.1630   38.3220 N.3    36  GLY36      -0.1225
     13  CA        60.6190   65.0390   39.7000 C.3    36  GLY36       0.1811
     14  C         59.6980   63.9910   40.2800 C.2    36  GLY36       0.2280
     15  O         58.4970   64.2260   40.4220 O.2    36  GLY36      -0.2866
     16  N         64.9430   60.3740   45.4960 N.3    93  TYR93      -0.1241
     17  CA        64.4110   61.3080   44.5100 C.3    93  TYR93       0.1605
     18  C         64.8100   60.7300   43.1570 C.2    93  TYR93       0.2264
     19  O         65.9520   60.2960   42.9790 O.2    93  TYR93      -0.2867
     20  CB        65.0330   62.6950   44.6880 C.3    93  TYR93       0.0534
     21  CG        64.4620   63.7460   43.7590 C.ar   93  TYR93      -0.0201
     22  CD1       63.2260   64.3380   44.0190 C.ar   93  TYR93      -0.0009
     23  CD2       65.1600   64.1510   42.6200 C.ar   93  TYR93      -0.0009
     24  CE1       62.7000   65.3100   43.1700 C.ar   93  TYR93       0.0417
     25  CE2       64.6400   65.1220   41.7620 C.ar   93  TYR93       0.0417
     26  CZ        63.4130   65.6990   42.0440 C.ar   93  TYR93       0.1957
     27  OH        62.9050   66.6750   41.2120 O.3    93  TYR93      -0.2866
     28  N         64.9980   61.3940   38.9800 N.3    95  ARG95      -0.1245
     29  CA        65.0310   62.4300   37.9590 C.3    95  ARG95       0.1563
     30  C         65.2050   61.9500   36.5220 C.2    95  ARG95       0.2260
     31  O         66.3280   61.6970   36.0670 O.2    95  ARG95      -0.2867
     32  CB        66.1410   63.4370   38.3150 C.3    95  ARG95       0.0307
     33  CG        66.4920   64.4840   37.2460 C.3    95  ARG95       0.0489
     34  CD        65.3010   65.3480   36.8250 C.3    95  ARG95       0.2205
     35  NE        64.7400   66.1550   37.9110 N.pl3  95  ARG95      -0.0865
     36  CZ        65.1940   67.3510   38.2830 C.cat  95  ARG95       0.5346
     37  NH1       66.2260   67.9050   37.6610 N.pl3  95  ARG95       0.1354
     38  NH2       64.6020   68.0010   39.2800 N.pl3  95  ARG95       0.1354
     39  N         57.5960   70.7790   31.9280 N.3   157  LYS157     -0.1245
     40  CA        58.8340   70.9090   32.6790 C.3   157  LYS157      0.1561
     41  C         59.9620   70.9140   31.6460 C.2   157  LYS157      0.2260
     42  O         60.6660   69.9210   31.4590 O.2   157  LYS157     -0.2867
     43  CB        59.0020   69.7500   33.6700 C.3   157  LYS157      0.0271
     44  CG        58.4140   70.0290   35.0520 C.3   157  LYS157      0.0035
     45  CD        58.3480   68.7630   35.9060 C.3   157  LYS157      0.0206
     46  CE        58.6060   69.0350   37.3870 C.3   157  LYS157      0.1093
     47  NZ        57.9650   70.2680   37.8510 N.3   157  LYS157     -0.1314
     48  N         63.3460   76.9820   33.5640 N.3   162  TYR162     -0.1241
     49  CA        63.9020   77.1820   34.8870 C.3   162  TYR162      0.1605
     50  C         64.9290   78.2720   35.1020 C.2   162  TYR162      0.2264
     51  O         65.3950   78.4770   36.2190 O.2   162  TYR162     -0.2867
     52  CB        64.3270   75.8180   35.4470 C.3   162  TYR162      0.0534
     53  CG        63.0950   74.9520   35.5510 C.ar  162  TYR162     -0.0201
     54  CD1       62.5770   74.3260   34.4180 C.ar  162  TYR162     -0.0009
     55  CD2       62.3180   74.9430   36.7140 C.ar  162  TYR162     -0.0009
     56  CE1       61.3210   73.7400   34.4250 C.ar  162  TYR162      0.0417
     57  CE2       61.0510   74.3550   36.7300 C.ar  162  TYR162      0.0417
     58  CZ        60.5590   73.7650   35.5750 C.ar  162  TYR162      0.1957
     59  OH        59.2820   73.2590   35.5310 O.3   162  TYR162     -0.2866
     60  N         62.8880   80.4250   37.0930 N.3   165  SER165     -0.1217
     61  CA        62.8080   79.9320   38.4640 C.3   165  SER165      0.1889
     62  C         64.1090   80.1890   39.2190 C.2   165  SER165      0.2288
     63  O         64.0880   80.5760   40.3890 O.2   165  SER165     -0.2866
     64  CB        62.5060   78.4320   38.4740 C.3   165  SER165      0.2089
     65  OG        61.1960   78.1810   38.0100 O.3   165  SER165     -0.2183
     66  N         58.9160   79.3390   42.8930 N.3   193  SER193     -0.1202
     67  CA        59.8810   78.9790   41.8560 C.3   193  SER193      0.2020
     68  C         59.7260   77.5160   41.4390 C.2   193  SER193      0.2619
     69  O         60.1240   77.1330   40.3390 O.2   193  SER193     -0.2717
     70  CB        61.3190   79.2450   42.3270 C.3   193  SER193      0.2103
     71  OG        61.7360   78.3230   43.3180 O.3   193  SER193     -0.2182
     72  N         59.1370   76.7060   42.3150 N.am  194  GLY194     -0.1956
     73  CA        58.9320   75.3020   42.0070 C.3   194  GLY194      0.1869
     74  C         57.8390   74.6800   42.8570 C.2   194  GLY194      0.2309
     75  O         57.9010   73.4950   43.1880 O.2   194  GLY194     -0.2863
     76  N         54.4590   70.5700   46.1450 N.3   253  GLY253     -0.1210
     77  CA        55.3770   70.1600   45.1000 C.3   253  GLY253      0.1956
     78  C         55.9370   68.8070   45.4870 C.2   253  GLY253      0.2613
     79  O         55.8670   68.4220   46.6500 O.2   253  GLY253     -0.2717
     80  N         56.4890   68.0720   44.5330 N.am  254  THR254     -0.1938
     81  CA        57.0370   66.7630   44.8570 C.3   254  THR254      0.2028
     82  C         58.1250   66.8940   45.9190 C.2   254  THR254      0.2642
     83  O         58.1120   66.1800   46.9230 O.2   254  THR254     -0.2714
     84  CB        57.5740   66.0780   43.5900 C.3   254  THR254      0.1808
     85  OG1       56.4680   65.7540   42.7380 O.3   254  THR254     -0.2208
     86  CG2       58.3220   64.7940   43.9370 C.3   254  THR254      0.0379
     87  N         59.0510   67.8240   45.7090 N.am  255  ALA255     -0.1963
     88  CA        60.1270   68.0420   46.6660 C.3   255  ALA255      0.1728
     89  C         59.6310   68.7740   47.9130 C.2   255  ALA255      0.2616
     90  O         60.0580   68.4770   49.0270 O.2   255  ALA255     -0.2715
     91  CB        61.2590   68.8320   46.0080 C.3   255  ALA255      0.0334
     92  N         58.7180   69.7230   47.7270 N.am  256  ALA256     -0.1977
     93  CA        58.1870   70.5060   48.8390 C.3   256  ALA256      0.1597
     94  C         57.0740   69.8410   49.6540 C.2   256  ALA256      0.2287
     95  O         56.7260   70.3310   50.7330 O.2   256  ALA256     -0.2864
     96  CB        57.6960   71.8620   48.3200 C.3   256  ALA256      0.0319
@<TRIPOS>BOND
     1    42    41    2
     2    41    40    1
     3     1     2    1
     4    39    40    1
     5    40    43    1
     6     2     5    1
     7     2     3    1
     8    48    49    1
     9    43    44    1
    10     4     3    2
    11     5     6    1
    12     8     6   ar
    13     8    10   ar
    14    54    56   ar
    15    54    53   ar
    16    56    58   ar
    17     6     7   ar
    18    10    11   ar
    19    49    50    1
    20    49    52    1
    21    44    45    1
    22    50    51    2
    23    52    53    1
    24    59    58    1
    25    53    55   ar
    26    58    57   ar
    27    11     9   ar
    28     7     9   ar
    29    45    46    1
    30    31    30    2
    31    30    29    1
    32    55    57   ar
    33    34    33    1
    34    34    35    1
    35    60    61    1
    36    33    32    1
    37    46    47    1
    38    37    36    1
    39    35    36    2
    40    29    32    1
    41    29    28    1
    42    65    64    1
    43    36    38    1
    44    12    13    1
    45    61    64    1
    46    61    62    1
    47    62    63    2
    48    13    14    1
    49    14    15    2
    50    69    68    2
    51    27    26    1
    52    68    67    1
    53    68    72   am
    54    25    26   ar
    55    25    23   ar
    56    67    70    1
    57    67    66    1
    58    73    72    1
    59    73    74    1
    60    26    24   ar
    61    70    71    1
    62    23    21   ar
    63    85    84    1
    64    74    75    2
    65    19    18    2
    66    18    17    1
    67    24    22   ar
    68    84    86    1
    69    84    81    1
    70    21    22   ar
    71    21    20    1
    72    17    20    1
    73    17    16    1
    74    80    81    1
    75    80    78   am
    76    81    82    1
    77    77    78    1
    78    77    76    1
    79    78    79    2
    80    87    82   am
    81    87    88    1
    82    82    83    2
    83    91    88    1
    84    88    89    1
    85    92    89   am
    86    92    93    1
    87    89    90    2
    88    96    93    1
    89    93    94    1
    90    94    95    2
