@<TRIPOS>MOLECULE
tmp/2ej1A00.pdb
 181 177 0 0 0
SMALL
GASTEIGER

@<TRIPOS>ATOM
      1  N         14.4580   36.2450   10.0540 N.3    38  GLY38      -0.1210
      2  CA        13.0730   35.8330    9.9530 C.3    38  GLY38       0.1956
      3  C         12.2180   36.8370    9.2200 C.2    38  GLY38       0.2612
      4  O         12.7290   37.7350    8.5530 O.2    38  GLY38      -0.2717
      5  N         10.9060   36.6900    9.3440 N.am   39  GLY39      -0.1942
      6  CA        10.0170   37.6000    8.6590 C.3    39  GLY39       0.2014
      7  C          9.4700   36.9550    7.4060 C.2    39  GLY39       0.2639
      8  O          9.8670   35.8420    7.0310 O.2    39  GLY39      -0.2714
      9  N          8.5740   37.6690    6.7380 N.am   40  ASN40      -0.1958
     10  CA         7.9210   37.1580    5.5400 C.3    40  ASN40       0.1819
     11  C          8.8200   36.5220    4.4870 C.2    40  ASN40       0.2621
     12  O          8.5060   35.4440    3.9770 O.2    40  ASN40      -0.2715
     13  CB         7.0790   38.2650    4.9000 C.3    40  ASN40       0.1195
     14  CG         5.9050   38.6770    5.7700 C.2    40  ASN40       0.2630
     15  OD1        5.5540   37.9780    6.7200 O.2    40  ASN40      -0.2716
     16  ND2        5.2810   39.8080    5.4400 N.am   40  ASN40      -0.0877
     17  N          9.9300   37.1740    4.1580 N.am   41  ARG41      -0.1977
     18  CA        10.8390   36.6530    3.1380 C.3    41  ARG41       0.1597
     19  C         11.4800   35.2980    3.4500 C.2    41  ARG41       0.2287
     20  O         11.9300   34.6080    2.5370 O.2    41  ARG41      -0.2864
     21  CB        11.9510   37.6690    2.8500 C.3    41  ARG41       0.0334
     22  CG        11.6340   38.6870    1.7480 C.3    41  ARG41       0.0492
     23  CD        11.7480   38.0650    0.3540 C.3    41  ARG41       0.2205
     24  NE        11.5810   39.0690   -0.6960 N.pl3  41  ARG41      -0.0865
     25  CZ        11.8790   38.8820   -1.9790 C.cat  41  ARG41       0.5346
     26  NH1       12.3640   37.7190   -2.3940 N.pl3  41  ARG41       0.1354
     27  NH2       11.6970   39.8640   -2.8520 N.pl3  41  ARG41       0.1354
     28  N          8.8520   37.1020   -2.2280 N.3    54  ALA54      -0.1245
     29  CA         8.3130   38.2180   -1.4520 C.3    54  ALA54       0.1562
     30  C          6.8650   38.0500   -1.0200 C.2    54  ALA54       0.2260
     31  O          6.3920   38.7550   -0.1270 O.2    54  ALA54      -0.2867
     32  CB         8.4530   39.5090   -2.2430 C.3    54  ALA54       0.0290
     33  N          4.0880   40.9800   -0.2490 N.3    57  ASP57      -0.1225
     34  CA         4.8660   42.1950   -0.0390 C.3    57  ASP57       0.1805
     35  C          5.3990   42.7620   -1.3510 C.2    57  ASP57       0.2597
     36  O          5.6530   43.9620   -1.4490 O.2    57  ASP57      -0.2718
     37  CB         6.0490   41.9480    0.9020 C.3    57  ASP57       0.1424
     38  CG         5.6350   41.8370    2.3520 C.2    57  ASP57       0.3668
     39  OD1        4.6390   42.4850    2.7540 O.co2  57  ASP57      -0.2456
     40  OD2        6.3280   41.1150    3.0990 O.co2  57  ASP57      -0.2456
     41  N          5.5750   41.9080   -2.3580 N.am   58  TRP58      -0.1976
     42  CA         6.0920   42.3780   -3.6390 C.3    58  TRP58       0.1640
     43  C          5.7160   41.4930   -4.8230 C.2    58  TRP58       0.2290
     44  O          6.5660   40.8290   -5.4150 O.2    58  TRP58      -0.2864
     45  CB         7.6190   42.5310   -3.5640 C.3    58  TRP58       0.0576
     46  CG         8.1960   43.4590   -4.6030 C.ar   58  TRP58       0.0006
     47  CD1        8.5280   43.1550   -5.8960 C.ar   58  TRP58       0.0946
     48  CD2        8.4910   44.8500   -4.4310 C.ar   58  TRP58       0.0152
     49  NE1        9.0130   44.2730   -6.5380 N.ar   58  TRP58      -0.2442
     50  CE2        9.0000   45.3270   -5.6620 C.ar   58  TRP58       0.0810
     51  CE3        8.3740   45.7410   -3.3550 C.ar   58  TRP58       0.0012
     52  CZ2        9.3910   46.6570   -5.8450 C.ar   58  TRP58       0.0191
     53  CZ3        8.7640   47.0680   -3.5380 C.ar   58  TRP58       0.0001
     54  CH2        9.2660   47.5100   -4.7760 C.ar   58  TRP58       0.0015
     55  N          7.1760   37.8790   -6.0520 N.3    61  TYR61      -0.1241
     56  CA         8.4420   37.7940   -6.7740 C.3    61  TYR61       0.1605
     57  C          9.4100   36.7900   -6.1580 C.2    61  TYR61       0.2264
     58  O          9.6370   36.8170   -4.9520 O.2    61  TYR61      -0.2867
     59  CB         9.1540   39.1440   -6.7370 C.3    61  TYR61       0.0534
     60  CG         8.9460   40.0480   -7.9220 C.ar   61  TYR61      -0.0201
     61  CD1        7.6720   40.2950   -8.4280 C.ar   61  TYR61      -0.0009
     62  CD2       10.0280   40.7230   -8.4910 C.ar   61  TYR61      -0.0009
     63  CE1        7.4790   41.2000   -9.4700 C.ar   61  TYR61       0.0417
     64  CE2        9.8460   41.6280   -9.5300 C.ar   61  TYR61       0.0417
     65  CZ         8.5700   41.8650  -10.0120 C.ar   61  TYR61       0.1957
     66  OH         8.3840   42.7940  -11.0110 O.3    61  TYR61      -0.2866
     67  N         13.2030   35.9760   -6.1880 N.3    63  ASP63      -0.1239
     68  CA        14.4400   36.5990   -6.6420 C.3    63  ASP63       0.1674
     69  C         15.5530   36.5280   -5.6110 C.2    63  ASP63       0.2266
     70  O         15.4900   35.7470   -4.6630 O.2    63  ASP63      -0.2867
     71  CB        14.1900   38.0620   -7.0140 C.3    63  ASP63       0.1410
     72  CG        13.5480   38.8470   -5.8870 C.2    63  ASP63       0.3668
     73  OD1       13.8440   38.5550   -4.7070 O.co2  63  ASP63      -0.2456
     74  OD2       12.7550   39.7660   -6.1830 O.co2  63  ASP63      -0.2456
     75  N         16.5070   38.9780   -3.5000 N.3    65  TYR65      -0.1241
     76  CA        16.3870   40.0130   -2.4720 C.3    65  TYR65       0.1605
     77  C         17.1780   39.7670   -1.1930 C.2    65  TYR65       0.2264
     78  O         17.8820   40.6560   -0.7210 O.2    65  TYR65      -0.2867
     79  CB        14.9210   40.2320   -2.0940 C.3    65  TYR65       0.0534
     80  CG        14.7350   41.2340   -0.9730 C.ar   65  TYR65      -0.0201
     81  CD1       14.8830   42.6050   -1.1990 C.ar   65  TYR65      -0.0009
     82  CD2       14.4330   40.8100    0.3220 C.ar   65  TYR65      -0.0009
     83  CE1       14.7330   43.5260   -0.1610 C.ar   65  TYR65       0.0417
     84  CE2       14.2840   41.7210    1.3640 C.ar   65  TYR65       0.0417
     85  CZ        14.4340   43.0760    1.1170 C.ar   65  TYR65       0.1957
     86  OH        14.2780   43.9750    2.1500 O.3    65  TYR65      -0.2866
     87  N         20.8440   40.3930   -1.6860 N.3    68  GLU68      -0.1245
     88  CA        21.0910   41.8220   -1.8380 C.3    68  GLU68       0.1567
     89  C         20.9680   42.5640   -0.5110 C.2    68  GLU68       0.2260
     90  O         21.8790   43.2870   -0.1050 O.2    68  GLU68      -0.2867
     91  CB        20.1020   42.4130   -2.8460 C.3    68  GLU68       0.0388
     92  CG        20.1960   43.9220   -3.0220 C.3    68  GLU68       0.1160
     93  CD        21.5760   44.3730   -3.4600 C.2    68  GLU68       0.3649
     94  OE1       22.1110   43.7890   -4.4230 O.co2  68  GLU68      -0.2457
     95  OE2       22.1200   45.3130   -2.8450 O.co2  68  GLU68      -0.2457
     96  N         28.8020   39.1200   -3.7390 N.3    74  LYS74      -0.1245
     97  CA        28.3190   38.5510   -4.9930 C.3    74  LYS74       0.1561
     98  C         28.9570   37.2320   -5.4200 C.2    74  LYS74       0.2260
     99  O         28.3240   36.4270   -6.1060 O.2    74  LYS74      -0.2867
    100  CB        28.4400   39.5870   -6.1140 C.3    74  LYS74       0.0271
    101  CG        27.4030   40.6920   -5.9870 C.3    74  LYS74       0.0035
    102  CD        27.4910   41.7150   -7.1020 C.3    74  LYS74       0.0206
    103  CE        26.2990   42.6620   -7.0490 C.3    74  LYS74       0.1093
    104  NZ        26.1290   43.2790   -5.7030 N.3    74  LYS74      -0.1314
    105  N         26.8640   34.2500   -3.9890 N.3    77  TRP77      -0.1241
    106  CA        25.4290   34.1690   -4.2450 C.3    77  TRP77       0.1605
    107  C         24.9290   32.7760   -4.6150 C.2    77  TRP77       0.2264
    108  O         23.7710   32.4410   -4.3640 O.2    77  TRP77      -0.2867
    109  CB        25.0390   35.1850   -5.3220 C.3    77  TRP77       0.0550
    110  CG        24.8930   36.5700   -4.7670 C.ar   77  TRP77       0.0003
    111  CD1       25.5620   37.0980   -3.6990 C.ar   77  TRP77       0.0946
    112  CD2       24.0290   37.6060   -5.2480 C.ar   77  TRP77       0.0152
    113  NE1       25.1680   38.3940   -3.4840 N.ar   77  TRP77      -0.2442
    114  CE2       24.2290   38.7340   -4.4200 C.ar   77  TRP77       0.0810
    115  CE3       23.1070   37.6920   -6.2970 C.ar   77  TRP77       0.0012
    116  CZ2       23.5390   39.9350   -4.6080 C.ar   77  TRP77       0.0191
    117  CZ3       22.4190   38.8910   -6.4840 C.ar   77  TRP77       0.0001
    118  CH2       22.6410   39.9940   -5.6430 C.ar   77  TRP77       0.0015
    119  N          7.5330   31.3770    9.8280 N.3   179  ASN179     -0.1225
    120  CA         7.1080   32.6940   10.2940 C.3   179  ASN179      0.1785
    121  C          5.6040   32.8980   10.1020 C.2   179  ASN179      0.2597
    122  O          5.0770   32.6590    9.0180 O.2   179  ASN179     -0.2718
    123  CB         7.8640   33.7730    9.5020 C.3   179  ASN179      0.1169
    124  CG         7.4970   35.1900    9.9230 C.2   179  ASN179      0.2627
    125  OD1        7.8320   35.6280   11.0170 O.2   179  ASN179     -0.2716
    126  ND2        6.8070   35.9120    9.0430 N.am  179  ASN179     -0.0877
    127  N          4.9310   33.3320   11.1660 N.am  180  GLN180     -0.1979
    128  CA         3.4960   33.6300   11.1460 C.3   180  GLN180      0.1601
    129  C          2.6570   32.6800   10.2970 C.2   180  GLN180      0.2287
    130  O          2.1020   33.0730    9.2640 O.2   180  GLN180     -0.2864
    131  CB         3.2940   35.0750   10.6730 C.3   180  GLN180      0.0394
    132  CG         4.2500   36.0470   11.3720 C.3   180  GLN180      0.0908
    133  CD         3.9370   37.5080   11.1200 C.2   180  GLN180      0.2608
    134  OE1        3.5580   37.9050   10.0120 O.2   180  GLN180     -0.2717
    135  NE2        4.1120   38.3270   12.1510 N.am  180  GLN180     -0.0878
    136  N          2.9590   43.4500   18.1650 N.3   279  TYR279     -0.1241
    137  CA         2.9510   44.8210   17.6760 C.3   279  TYR279      0.1605
    138  C          1.7770   45.4110   18.4340 C.2   279  TYR279      0.2264
    139  O          0.6280   45.0260   18.2120 O.2   279  TYR279     -0.2867
    140  CB         2.6940   44.8540   16.1740 C.3   279  TYR279      0.0534
    141  CG         3.8820   44.4000   15.3670 C.ar  279  TYR279     -0.0201
    142  CD1        4.9890   45.2290   15.2020 C.ar  279  TYR279     -0.0009
    143  CD2        3.9130   43.1340   14.7840 C.ar  279  TYR279     -0.0009
    144  CE1        6.1030   44.8090   14.4720 C.ar  279  TYR279      0.0417
    145  CE2        5.0200   42.7050   14.0500 C.ar  279  TYR279      0.0417
    146  CZ         6.1080   43.5500   13.9000 C.ar  279  TYR279      0.1957
    147  OH         7.1950   43.1480   13.1570 O.3   279  TYR279     -0.2866
    148  N          3.2560   51.5050   13.2030 N.3   291  PHE291     -0.1241
    149  CA         2.8210   51.4340   11.8100 C.3   291  PHE291      0.1605
    150  C          2.3270   52.7730   11.2650 C.2   291  PHE291      0.2264
    151  O          1.1230   52.9920   11.1280 O.2   291  PHE291     -0.2867
    152  CB         1.7140   50.3870   11.6350 C.3   291  PHE291      0.0534
    153  CG         2.1300   48.9890   12.0000 C.ar  291  PHE291     -0.0203
    154  CD1        3.3770   48.4970   11.6280 C.ar  291  PHE291     -0.0042
    155  CD2        1.2610   48.1530   12.6920 C.ar  291  PHE291     -0.0042
    156  CE1        3.7530   47.1910   11.9420 C.ar  291  PHE291     -0.0003
    157  CE2        1.6270   46.8450   13.0090 C.ar  291  PHE291     -0.0003
    158  CZ         2.8750   46.3650   12.6340 C.ar  291  PHE291     -0.0000
    159  N          9.3710   39.5960   17.3580 N.3   353  GLU353     -0.1245
    160  CA         9.0290   40.7610   16.5490 C.3   353  GLU353      0.1567
    161  C          8.1640   41.6960   17.3830 C.2   353  GLU353      0.2260
    162  O          7.2160   41.2620   18.0400 O.2   353  GLU353     -0.2867
    163  CB         8.2680   40.3660   15.2820 C.3   353  GLU353      0.0388
    164  CG         9.1450   39.8890   14.1340 C.3   353  GLU353      0.1160
    165  CD         8.3450   39.6650   12.8640 C.2   353  GLU353      0.3649
    166  OE1        7.2740   40.2930   12.7290 O.co2 353  GLU353     -0.2457
    167  OE2        8.7870   38.8760   11.9990 O.co2 353  GLU353     -0.2457
    168  N         11.7330   44.6710   15.4340 N.3   386  TRP386     -0.1241
    169  CA        11.5750   44.6710   13.9780 C.3   386  TRP386      0.1605
    170  C         11.4610   46.1230   13.5230 C.2   386  TRP386      0.2264
    171  O         10.4970   46.8130   13.8560 O.2   386  TRP386     -0.2867
    172  CB        10.3320   43.8970   13.5310 C.3   386  TRP386      0.0550
    173  CG        10.2050   43.8530   12.0260 C.ar  386  TRP386      0.0003
    174  CD1        9.6950   44.8260   11.2120 C.ar  386  TRP386      0.0946
    175  CD2       10.6890   42.8190   11.1590 C.ar  386  TRP386      0.0152
    176  NE1        9.8370   44.4640    9.8880 N.ar  386  TRP386     -0.2442
    177  CE2       10.4440   43.2360    9.8300 C.ar  386  TRP386      0.0810
    178  CE3       11.3060   41.5790   11.3770 C.ar  386  TRP386      0.0012
    179  CZ2       10.7990   42.4560    8.7210 C.ar  386  TRP386      0.0191
    180  CZ3       11.6590   40.8010   10.2730 C.ar  386  TRP386      0.0001
    181  CH2       11.4030   41.2470    8.9620 C.ar  386  TRP386      0.0015
@<TRIPOS>BOND
     1    66    65    1
     2    65    64   ar
     3    65    63   ar
     4    64    62   ar
     5    63    61   ar
     6    62    60   ar
     7    61    60   ar
     8    60    59    1
     9   102   103    1
    10   102   101    1
    11   103   104    1
    12    71    68    1
    13    71    72    1
    14    56    59    1
    15    56    57    1
    16    56    55    1
    17    68    67    1
    18    68    69    1
    19    49    47   ar
    20    49    50   ar
    21   117   115   ar
    22   117   118   ar
    23   115   112   ar
    24    74    72   ar
    25    57    58    2
    26   100   101    1
    27   100    97    1
    28    99    98    2
    29    47    46   ar
    30    72    73   ar
    31    52    50   ar
    32    52    54   ar
    33    50    48   ar
    34   118   116   ar
    35    69    70    2
    36    98    97    1
    37    44    43    2
    38   109   110    1
    39   109   106    1
    40   112   110   ar
    41   112   114   ar
    42    97    96    1
    43    43    42    1
    44    54    53   ar
    45   110   111   ar
    46   107   108    2
    47   107   106    1
    48   116   114   ar
    49    46    48   ar
    50    46    45    1
    51    48    51   ar
    52    94    93   ar
    53   114   113   ar
    54   106   105    1
    55   111   113   ar
    56    42    45    1
    57    42    41    1
    58    53    51   ar
    59    75    76    1
    60    93    92    1
    61    93    95   ar
    62    92    91    1
    63    27    25    1
    64    91    88    1
    65    76    79    1
    66    76    77    1
    67    26    25    1
    68    41    35   am
    69    32    29    1
    70    28    29    1
    71    79    80    1
    72    25    24    2
    73    88    87    1
    74    88    89    1
    75    29    30    1
    76    36    35    2
    77    35    34    1
    78    81    80   ar
    79    81    83   ar
    80    77    78    2
    81    30    31    2
    82    80    82   ar
    83    24    23    1
    84    89    90    2
    85    33    34    1
    86    83    85   ar
    87    34    37    1
    88    82    84   ar
    89    23    22    1
    90    37    38    1
    91    85    84   ar
    92    85    86    1
    93    22    21    1
    94    38    39   ar
    95    38    40   ar
    96    20    19    2
    97    21    18    1
    98    18    19    1
    99    18    17    1
   100    12    11    2
   101    17    11   am
   102    11    10    1
   103    13    10    1
   104    13    14    1
   105    16    14   am
   106    10     9    1
   107    14    15    2
   108     9     7   am
   109     8     7    2
   110     7     6    1
   111     4     3    2
   112     6     5    1
   113   179   181   ar
   114   179   177   ar
   115   181   180   ar
   116   122   121    2
   117   126   124   am
   118     3     5   am
   119     3     2    1
   120   130   129    2
   121   123   124    1
   122   123   120    1
   123   119   120    1
   124   177   176   ar
   125   177   175   ar
   126   176   174   ar
   127   124   125    2
   128     2     1    1
   129   134   133    2
   130   121   120    1
   131   121   127   am
   132   180   178   ar
   133   129   128    1
   134   131   128    1
   135   131   132    1
   136   133   132    1
   137   133   135   am
   138   151   150    2
   139   128   127    1
   140   175   178   ar
   141   175   173   ar
   142   174   173   ar
   143   150   149    1
   144   154   156   ar
   145   154   153   ar
   146   152   149    1
   147   152   153    1
   148   149   148    1
   149   156   158   ar
   150   167   165   ar
   151   153   155   ar
   152   173   172    1
   153   158   157   ar
   154   155   157   ar
   155   166   165   ar
   156   165   164    1
   157   147   146    1
   158   170   171    2
   159   170   169    1
   160   172   169    1
   161   146   145   ar
   162   146   144   ar
   163   169   168    1
   164   145   143   ar
   165   164   163    1
   166   144   142   ar
   167   143   141   ar
   168   142   141   ar
   169   163   160    1
   170   141   140    1
   171   140   137    1
   172   160   159    1
   173   160   161    1
   174   161   162    2
   175   137   136    1
   176   137   138    1
   177   139   138    2
