@<TRIPOS>MOLECULE
tmp/2ej2A00.pdb
 197 188 0 0 0
SMALL
GASTEIGER

@<TRIPOS>ATOM
      1  N         -3.0340   15.5340   26.2950 N.3    35  PHE35      -0.1241
      2  CA        -3.7900   16.5980   25.6570 C.3    35  PHE35       0.1605
      3  C         -2.9460   17.8360   25.4500 C.2    35  PHE35       0.2264
      4  O         -1.7890   17.8990   25.8690 O.2    35  PHE35      -0.2867
      5  CB        -5.0250   16.9520   26.5020 C.3    35  PHE35       0.0534
      6  CG        -4.7050   17.6030   27.8300 C.ar   35  PHE35      -0.0203
      7  CD1       -4.5840   18.9870   27.9340 C.ar   35  PHE35      -0.0042
      8  CD2       -4.5260   16.8290   28.9770 C.ar   35  PHE35      -0.0042
      9  CE1       -4.2910   19.5930   29.1650 C.ar   35  PHE35      -0.0003
     10  CE2       -4.2330   17.4210   30.2070 C.ar   35  PHE35      -0.0003
     11  CZ        -4.1150   18.8070   30.3030 C.ar   35  PHE35      -0.0000
     12  N         -3.2330   22.4100   24.8910 N.3    37  GLY37      -0.1225
     13  CA        -4.0090   23.6120   25.1070 C.3    37  GLY37       0.1811
     14  C         -3.4960   24.5880   24.0730 C.2    37  GLY37       0.2280
     15  O         -2.3280   24.9780   24.1090 O.2    37  GLY37      -0.2866
     16  N          4.5540   18.8150   20.8010 N.3    58  ARG58      -0.1245
     17  CA         4.4930   18.4140   22.1990 C.3    58  ARG58       0.1563
     18  C          3.4160   17.3490   22.4070 C.2    58  ARG58       0.2260
     19  O          3.5730   16.4550   23.2350 O.2    58  ARG58      -0.2867
     20  CB         4.2310   19.6300   23.0980 C.3    58  ARG58       0.0307
     21  CG         4.3870   19.3320   24.5870 C.3    58  ARG58       0.0489
     22  CD         4.4640   20.6140   25.4180 C.3    58  ARG58       0.2205
     23  NE         3.1860   21.3170   25.4750 N.pl3  58  ARG58      -0.0865
     24  CZ         3.0220   22.5280   25.9970 C.cat  58  ARG58       0.5346
     25  NH1        4.0620   23.1770   26.5090 N.pl3  58  ARG58       0.1354
     26  NH2        1.8180   23.0910   26.0050 N.pl3  58  ARG58       0.1354
     27  N        -10.2300   28.5280   22.5730 N.3    94  TYR94      -0.1241
     28  CA        -9.2730   27.6380   23.2030 C.3    94  TYR94       0.1605
     29  C         -9.5110   26.3000   22.5130 C.2    94  TYR94       0.2264
     30  O        -10.6550   25.8490   22.3950 O.2    94  TYR94      -0.2867
     31  CB        -9.5590   27.5230   24.7010 C.3    94  TYR94       0.0534
     32  CG        -8.6040   26.6140   25.4530 C.ar   94  TYR94      -0.0201
     33  CD1       -7.3470   27.0640   25.8580 C.ar   94  TYR94      -0.0009
     34  CD2       -8.9650   25.3050   25.7650 C.ar   94  TYR94      -0.0009
     35  CE1       -6.4720   26.2290   26.5630 C.ar   94  TYR94       0.0417
     36  CE2       -8.1040   24.4660   26.4640 C.ar   94  TYR94       0.0417
     37  CZ        -6.8610   24.9320   26.8640 C.ar   94  TYR94       0.1957
     38  OH        -6.0350   24.1030   27.5930 O.3    94  TYR94      -0.2866
     39  N         -8.6520   22.2230   22.3800 N.3    96  ARG96      -0.1245
     40  CA        -8.2200   21.1180   23.2280 C.3    96  ARG96       0.1563
     41  C         -8.1240   19.7650   22.5290 C.2    96  ARG96       0.2260
     42  O         -9.1170   19.0320   22.4180 O.2    96  ARG96      -0.2867
     43  CB        -9.1500   21.0110   24.4550 C.3    96  ARG96       0.0307
     44  CG        -9.0010   19.7410   25.3040 C.3    96  ARG96       0.0489
     45  CD        -7.5880   19.5570   25.8570 C.3    96  ARG96       0.2205
     46  NE        -7.1990   20.6180   26.7830 N.pl3  96  ARG96      -0.0865
     47  CZ        -7.5930   20.6960   28.0500 C.cat  96  ARG96       0.5346
     48  NH1       -8.3980   19.7710   28.5600 N.pl3  96  ARG96       0.1354
     49  NH2       -7.1710   21.6980   28.8140 N.pl3  96  ARG96       0.1354
     50  N        -13.2490   31.5640   23.6810 N.3   125  TRP125     -0.1241
     51  CA       -12.5260   31.9360   24.8900 C.3   125  TRP125      0.1605
     52  C        -13.3240   32.9250   25.7310 C.2   125  TRP125      0.2264
     53  O        -14.1430   33.6670   25.1500 O.2   125  TRP125     -0.2867
     54  CB       -11.1730   32.5450   24.5150 C.3   125  TRP125      0.0550
     55  CG       -10.3260   32.8800   25.6950 C.ar  125  TRP125      0.0003
     56  CD1       -9.9470   34.1260   26.1050 C.ar  125  TRP125      0.0946
     57  CD2       -9.7530   31.9570   26.6280 C.ar  125  TRP125      0.0152
     58  NE1       -9.1700   34.0370   27.2370 N.ar  125  TRP125     -0.2442
     59  CE2       -9.0350   32.7170   27.5800 C.ar  125  TRP125      0.0810
     60  CE3       -9.7760   30.5620   26.7540 C.ar  125  TRP125      0.0012
     61  CZ2       -8.3450   32.1260   28.6450 C.ar  125  TRP125      0.0191
     62  CZ3       -9.0900   29.9730   27.8150 C.ar  125  TRP125      0.0001
     63  CH2       -8.3840   30.7570   28.7450 C.ar  125  TRP125      0.0015
     64  N          5.0600   19.2630   43.6060 N.3   136  ARG136     -0.1245
     65  CA         5.0310   18.8740   42.2090 C.3   136  ARG136      0.1563
     66  C          5.7610   17.5330   42.1550 C.2   136  ARG136      0.2260
     67  O          6.7600   17.3410   42.8500 O.2   136  ARG136     -0.2867
     68  CB         5.7570   19.9120   41.3520 C.3   136  ARG136      0.0307
     69  CG         5.3860   19.8550   39.8860 C.3   136  ARG136      0.0489
     70  CD         3.8820   19.9850   39.7590 C.3   136  ARG136      0.2205
     71  NE         3.4290   20.1120   38.3830 N.pl3 136  ARG136     -0.0865
     72  CZ         2.1640   19.9570   38.0010 C.cat 136  ARG136      0.5346
     73  NH1        1.2180   19.6640   38.8900 N.pl3 136  ARG136      0.1354
     74  NH2        1.8450   20.0960   36.7280 N.pl3 136  ARG136      0.1354
     75  N          1.9780   16.4140   28.9620 N.3   147  LYS147     -0.1245
     76  CA         0.6620   16.7340   29.4900 C.3   147  LYS147      0.1561
     77  C         -0.1490   15.4450   29.5550 C.2   147  LYS147      0.2260
     78  O         -1.0500   15.2160   28.7440 O.2   147  LYS147     -0.2867
     79  CB        -0.0300   17.7750   28.6040 C.3   147  LYS147      0.0271
     80  CG         0.7720   19.0700   28.4890 C.3   147  LYS147      0.0035
     81  CD         0.0140   20.1770   27.7690 C.3   147  LYS147      0.0206
     82  CE        -1.0950   20.7520   28.6380 C.3   147  LYS147      0.1093
     83  NZ        -1.8200   21.8340   27.9190 N.3   147  LYS147     -0.1314
     84  N         -2.4630   15.7150   36.0710 N.3   152  TYR152     -0.1241
     85  CA        -3.3040   16.7880   36.5660 C.3   152  TYR152      0.1605
     86  C         -4.1140   16.5610   37.8240 C.2   152  TYR152      0.2264
     87  O         -4.8840   17.4310   38.2380 O.2   152  TYR152     -0.2867
     88  CB        -4.1580   17.3370   35.4180 C.3   152  TYR152      0.0534
     89  CG        -3.2710   18.0630   34.4270 C.ar  152  TYR152     -0.0201
     90  CD1       -2.4960   17.3540   33.5080 C.ar  152  TYR152     -0.0009
     91  CD2       -3.0990   19.4490   34.4980 C.ar  152  TYR152     -0.0009
     92  CE1       -1.5670   17.9990   32.6930 C.ar  152  TYR152      0.0417
     93  CE2       -2.1700   20.1060   33.6880 C.ar  152  TYR152      0.0417
     94  CZ        -1.4070   19.3750   32.7910 C.ar  152  TYR152      0.1957
     95  OH        -0.4730   20.0060   31.9960 O.3   152  TYR152     -0.2866
     96  N          6.2590   25.1670   39.7140 N.3   181  GLU181     -0.1245
     97  CA         5.4090   25.8800   38.7670 C.3   181  GLU181      0.1567
     98  C          4.0070   26.0540   39.3410 C.2   181  GLU181      0.2260
     99  O          3.7190   25.6010   40.4500 O.2   181  GLU181     -0.2867
    100  CB         5.3320   25.0970   37.4480 C.3   181  GLU181      0.0388
    101  CG         4.5040   23.8110   37.5130 C.3   181  GLU181      0.1160
    102  CD         4.6010   22.9690   36.2430 C.2   181  GLU181      0.3649
    103  OE1        4.8080   23.5390   35.1520 O.co2 181  GLU181     -0.2457
    104  OE2        4.4560   21.7320   36.3300 O.co2 181  GLU181     -0.2457
    105  N         -0.2220   25.5010   39.0620 N.3   183  SER183     -0.1202
    106  CA        -0.9510   24.2810   38.7390 C.3   183  SER183      0.2020
    107  C         -1.0490   24.1360   37.2230 C.2   183  SER183      0.2619
    108  O         -1.1900   23.0310   36.7010 O.2   183  SER183     -0.2717
    109  CB        -2.3500   24.2990   39.3710 C.3   183  SER183      0.2103
    110  OG        -3.2100   25.2050   38.7070 O.3   183  SER183     -0.2182
    111  N         -0.9590   25.2600   36.5180 N.am  184  GLY184     -0.1942
    112  CA        -1.0310   25.2310   35.0690 C.3   184  GLY184      0.2014
    113  C         -0.2710   26.3630   34.4010 C.2   184  GLY184      0.2639
    114  O         -0.5990   26.7590   33.2810 O.2   184  GLY184     -0.2714
    115  N          0.7480   26.8840   35.0810 N.am  185  GLU185     -0.1963
    116  CA         1.5450   27.9840   34.5410 C.3   185  GLU185      0.1733
    117  C          3.0130   27.8480   34.9380 C.2   185  GLU185      0.2616
    118  O          3.3480   27.1040   35.8560 O.2   185  GLU185     -0.2715
    119  CB         1.0370   29.3330   35.0700 C.3   185  GLU185      0.0429
    120  CG        -0.4570   29.5880   34.9240 C.3   185  GLU185      0.1163
    121  CD        -1.2710   29.0270   36.0780 C.2   185  GLU185      0.3649
    122  OE1       -2.4840   29.3060   36.1270 O.co2 185  GLU185     -0.2457
    123  OE2       -0.7120   28.3120   36.9380 O.co2 185  GLU185     -0.2457
    124  N          3.8800   28.5690   34.2330 N.am  186  ASN186     -0.1972
    125  CA         5.3100   28.5830   34.5430 C.3   186  ASN186      0.1688
    126  C          5.5480   29.8870   35.2870 C.2   186  ASN186      0.2292
    127  O          4.7570   30.8200   35.1600 O.2   186  ASN186     -0.2864
    128  CB         6.1450   28.5530   33.2670 C.3   186  ASN186      0.1181
    129  CG         6.1280   27.1990   32.6020 C.2   186  ASN186      0.2629
    130  OD1        5.8540   27.0900   31.4110 O.2   186  ASN186     -0.2716
    131  ND2        6.4280   26.1530   33.3710 N.am  186  ASN186     -0.0877
    132  N          6.6140   21.6490   33.1090 N.3   204  LEU204     -0.1245
    133  CA         6.3320   21.5110   31.6920 C.3   204  LEU204      0.1561
    134  C          7.1780   22.6020   31.0410 C.2   204  LEU204      0.2260
    135  O          7.3780   23.6620   31.6360 O.2   204  LEU204     -0.2867
    136  CB         4.8510   21.7900   31.4110 C.3   204  LEU204      0.0270
    137  CG         4.3440   21.4500   30.0060 C.3   204  LEU204      0.0019
    138  CD1        4.2420   19.9330   29.8740 C.3   204  LEU204      0.0001
    139  CD2        2.9760   22.0870   29.7630 C.3   204  LEU204      0.0001
    140  N          6.9410   25.2160   29.1090 N.3   206  GLY206     -0.1210
    141  CA         5.9260   26.0870   28.5510 C.3   206  GLY206      0.1956
    142  C          6.2880   26.7920   27.2650 C.2   206  GLY206      0.2612
    143  O          7.3920   27.3200   27.1100 O.2   206  GLY206     -0.2717
    144  N          5.3440   26.7970   26.3320 N.am  207  ILE207     -0.1965
    145  CA         5.5470   27.4680   25.0640 C.3   207  ILE207      0.1727
    146  C          5.3870   28.9770   25.3000 C.2   207  ILE207      0.2617
    147  O          6.0260   29.7860   24.6350 O.2   207  ILE207     -0.2715
    148  CB         4.5430   26.9350   24.0090 C.3   207  ILE207      0.0290
    149  CG1        4.9160   25.4870   23.6520 C.3   207  ILE207      0.0022
    150  CG2        4.5610   27.8150   22.7650 C.3   207  ILE207      0.0023
    151  CD1        3.8800   24.7450   22.8220 C.3   207  ILE207      0.0001
    152  N          4.5540   29.3480   26.2690 N.am  208  THR208     -0.1937
    153  CA         4.3550   30.7590   26.5870 C.3   208  THR208      0.2028
    154  C          5.6300   31.2560   27.2710 C.2   208  THR208      0.2642
    155  O          6.0680   32.3810   27.0480 O.2   208  THR208     -0.2714
    156  CB         3.1580   30.9690   27.5370 C.3   208  THR208      0.1808
    157  OG1        2.0170   30.2680   27.0260 O.3   208  THR208     -0.2208
    158  CG2        2.8210   32.4500   27.6440 C.3   208  THR208      0.0379
    159  N          6.2200   30.4020   28.1050 N.am  209  ARG209     -0.1977
    160  CA         7.4580   30.7350   28.7980 C.3   209  ARG209      0.1597
    161  C          8.5330   31.0040   27.7500 C.2   209  ARG209      0.2287
    162  O          9.2750   31.9820   27.8380 O.2   209  ARG209     -0.2864
    163  CB         7.8860   29.5690   29.7000 C.3   209  ARG209      0.0334
    164  CG         9.3250   29.6560   30.2230 C.3   209  ARG209      0.0492
    165  CD         9.6930   28.4150   31.0430 C.3   209  ARG209      0.2205
    166  NE        11.0470   28.4930   31.5880 N.pl3 209  ARG209     -0.0865
    167  CZ        12.1600   28.3490   30.8730 C.cat 209  ARG209      0.5346
    168  NH1       12.0970   28.1100   29.5680 N.pl3 209  ARG209      0.1354
    169  NH2       13.3440   28.4550   31.4630 N.pl3 209  ARG209      0.1354
    170  N          3.1870   32.5450   33.2080 N.3   242  THR242     -0.1203
    171  CA         2.9670   32.4630   31.7730 C.3   242  THR242      0.1994
    172  C          2.2430   31.1520   31.4950 C.2   242  THR242      0.2618
    173  O          2.4550   30.1540   32.1920 O.2   242  THR242     -0.2717
    174  CB         4.2880   32.4840   30.9830 C.3   242  THR242      0.1784
    175  OG1        5.1180   31.3920   31.4060 O.3   242  THR242     -0.2211
    176  CG2        5.0180   33.7950   31.2160 C.3   242  THR242      0.0376
    177  N          1.3800   31.1620   30.4830 N.am  243  GLY243     -0.1942
    178  CA         0.6370   29.9650   30.1280 C.3   243  GLY243      0.2014
    179  C         -0.2750   30.2590   28.9540 C.2   243  GLY243      0.2640
    180  O         -0.6310   31.4070   28.7210 O.2   243  GLY243     -0.2714
    181  N         -0.6520   29.2330   28.2030 N.am  244  THR244     -0.1936
    182  CA        -1.5270   29.4490   27.0580 C.3   244  THR244      0.2028
    183  C         -2.8130   30.1480   27.4980 C.2   244  THR244      0.2642
    184  O         -3.2630   31.0960   26.8550 O.2   244  THR244     -0.2714
    185  CB        -1.8670   28.1170   26.3650 C.3   244  THR244      0.1808
    186  OG1       -0.6710   27.5630   25.8060 O.3   244  THR244     -0.2208
    187  CG2       -2.8880   28.3330   25.2480 C.3   244  THR244      0.0379
    188  N         -3.3820   29.6960   28.6100 N.am  245  ALA245     -0.1963
    189  CA        -4.6140   30.2850   29.1290 C.3   245  ALA245      0.1728
    190  C         -4.3470   31.5560   29.9210 C.2   245  ALA245      0.2616
    191  O         -5.0880   32.5290   29.8140 O.2   245  ALA245     -0.2715
    192  CB        -5.3480   29.2780   30.0050 C.3   245  ALA245      0.0334
    193  N         -3.2750   31.5470   30.7080 N.am  246  ALA246     -0.1977
    194  CA        -2.9260   32.6920   31.5330 C.3   246  ALA246      0.1597
    195  C         -2.1790   33.7900   30.7890 C.2   246  ALA246      0.2287
    196  O         -2.0200   34.8930   31.3150 O.2   246  ALA246     -0.2864
    197  CB        -2.0940   32.2260   32.7320 C.3   246  ALA246      0.0319
@<TRIPOS>BOND
     1    16    17    1
     2    17    18    1
     3    17    20    1
     4    39    40    1
     5    30    29    2
     6    18    19    2
     7    42    41    2
     8    29    28    1
     9    41    40    1
    10    27    28    1
    11   150   148    1
    12   151   149    1
    13    20    21    1
    14    28    31    1
    15    40    43    1
    16   149   148    1
    17    50    51    1
    18   148   145    1
    19    14    15    2
    20    14    13    1
    21    43    44    1
    22    54    51    1
    23    54    55    1
    24    21    22    1
    25   147   146    2
    26    31    32    1
    27    51    52    1
    28    12    13    1
    29   145   146    1
    30   145   144    1
    31    53    52    2
    32   187   185    1
    33   146   152   am
    34    44    45    1
    35    22    23    1
    36     3     2    1
    37     3     4    2
    38    32    34   ar
    39    32    33   ar
    40    23    24    2
    41     2     1    1
    42     2     5    1
    43    55    56   ar
    44    55    57   ar
    45    34    36   ar
    46   186   185    1
    47    45    46    1
    48    33    35   ar
    49    24    26    1
    50    24    25    1
    51    56    58   ar
    52   152   153    1
    53   144   142   am
    54   185   182    1
    55    36    37   ar
    56     5     6    1
    57    35    37   ar
    58   153   154    1
    59   153   156    1
    60    57    60   ar
    61    57    59   ar
    62    60    62   ar
    63    46    47    2
    64   184   183    2
    65    37    38    1
    66   157   156    1
    67   155   154    2
    68   182   183    1
    69   182   181    1
    70   143   142    2
    71    58    59   ar
    72   142   141    1
    73   154   159   am
    74   183   188   am
    75   156   158    1
    76    59    61   ar
    77   161   162    2
    78   161   160    1
    79    81    80    1
    80    81    82    1
    81    62    63   ar
    82     6     7   ar
    83     6     8   ar
    84    83    82    1
    85     7     9   ar
    86    47    48    1
    87    47    49    1
    88   159   160    1
    89   181   179   am
    90    80    79    1
    91   141   140    1
    92    79    76    1
    93   188   189    1
    94    61    63   ar
    95   180   179    2
    96    78    77    2
    97   160   163    1
    98   179   178    1
    99    75    76    1
   100     8    10   ar
   101   189   190    1
   102   189   192    1
   103     9    11   ar
   104    76    77    1
   105   168   167    1
   106   163   164    1
   107   139   137    1
   108   191   190    2
   109   138   137    1
   110   190   193   am
   111   137   136    1
   112   178   177    1
   113    10    11   ar
   114   164   165    1
   115   177   172   am
   116   193   194    1
   117   195   196    2
   118   195   194    1
   119   167   169    1
   120   167   166    2
   121   174   176    1
   122   174   175    1
   123   174   171    1
   124   134   135    2
   125   134   133    1
   126   165   166    1
   127   130   129    2
   128   136   133    1
   129   172   171    1
   130   172   173    2
   131   194   197    1
   132   133   132    1
   133   171   170    1
   134    95    94    1
   135   129   128    1
   136   129   131   am
   137    92    94   ar
   138    92    90   ar
   139    94    93   ar
   140   128   125    1
   141   114   113    2
   142    90    89   ar
   143    93    91   ar
   144   124   125    1
   145   124   117   am
   146   113   112    1
   147   113   115   am
   148    89    91   ar
   149    89    88    1
   150   116   117    1
   151   116   119    1
   152   116   115    1
   153   125   126    1
   154   120   119    1
   155   120   121    1
   156   117   118    2
   157   112   111    1
   158   103   102   ar
   159   127   126    2
   160    88    85    1
   161    84    85    1
   162   121   122   ar
   163   121   123   ar
   164   102   104   ar
   165   102   101    1
   166   111   107   am
   167    85    86    1
   168   108   107    2
   169    74    72    1
   170   107   106    1
   171   100   101    1
   172   100    97    1
   173    86    87    2
   174    72    71    2
   175    72    73    1
   176    71    70    1
   177   110   109    1
   178   106   105    1
   179   106   109    1
   180    97    98    1
   181    97    96    1
   182    98    99    2
   183    70    69    1
   184    69    68    1
   185    68    65    1
   186    66    65    1
   187    66    67    2
   188    65    64    1
