@<TRIPOS>MOLECULE
tmp/2ej3C01.pdb
 123 115 0 0 0
SMALL
GASTEIGER

@<TRIPOS>ATOM
      1  N         41.0930  103.0530   55.6930 N.3    34  PHE34      -0.1241
      2  CA        39.8130  103.4220   56.2690 C.3    34  PHE34       0.1605
      3  C         38.7710  102.3630   55.9810 C.2    34  PHE34       0.2264
      4  O         39.0240  101.3970   55.2600 O.2    34  PHE34      -0.2867
      5  CB        39.3560  104.7760   55.7060 C.3    34  PHE34       0.0534
      6  CG        39.0420  104.7530   54.2280 C.ar   34  PHE34      -0.0203
      7  CD1       37.7730  104.4060   53.7750 C.ar   34  PHE34      -0.0042
      8  CD2       40.0210  105.0760   53.2910 C.ar   34  PHE34      -0.0042
      9  CE1       37.4790  104.3820   52.4070 C.ar   34  PHE34      -0.0003
     10  CE2       39.7400  105.0540   51.9190 C.ar   34  PHE34      -0.0003
     11  CZ        38.4660  104.7060   51.4770 C.ar   34  PHE34      -0.0000
     12  N         34.1710  101.7840   55.7500 N.3    36  GLY36      -0.1225
     13  CA        32.8790  102.4070   55.5640 C.3    36  GLY36       0.1811
     14  C         31.9250  101.4500   56.2390 C.2    36  GLY36       0.2280
     15  O         31.7710  100.3090   55.8020 O.2    36  GLY36      -0.2866
     16  N         26.6240  106.9090   58.8250 N.3    93  TYR93      -0.1241
     17  CA        27.7490  106.3260   58.1150 C.3    93  TYR93       0.1605
     18  C         28.9380  106.5300   59.0490 C.2    93  TYR93       0.2264
     19  O         29.2070  107.6500   59.4910 O.2    93  TYR93      -0.2867
     20  CB        27.9950  107.0540   56.7940 C.3    93  TYR93       0.0534
     21  CG        29.1760  106.5150   56.0090 C.ar   93  TYR93      -0.0201
     22  CD1       29.0410  105.3990   55.1820 C.ar   93  TYR93      -0.0009
     23  CD2       30.4280  107.1200   56.0970 C.ar   93  TYR93      -0.0009
     24  CE1       30.1200  104.9040   54.4580 C.ar   93  TYR93       0.0417
     25  CE2       31.5200  106.6290   55.3770 C.ar   93  TYR93       0.0417
     26  CZ        31.3570  105.5230   54.5600 C.ar   93  TYR93       0.1957
     27  OH        32.4290  105.0440   53.8410 O.3    93  TYR93      -0.2866
     28  N         33.0270  106.2400   59.7030 N.3    95  ARG95      -0.1245
     29  CA        34.3010  106.2200   59.0010 C.3    95  ARG95       0.1563
     30  C         35.5420  106.0650   59.8830 C.2    95  ARG95       0.2260
     31  O         36.0720  107.0430   60.4140 O.2    95  ARG95      -0.2867
     32  CB        34.4300  107.4900   58.1420 C.3    95  ARG95       0.0307
     33  CG        35.8220  107.7480   57.5340 C.3    95  ARG95       0.0489
     34  CD        36.2780  106.6190   56.6220 C.3    95  ARG95       0.2205
     35  NE        35.4100  106.4440   55.4570 N.pl3  95  ARG95      -0.0865
     36  CZ        35.4800  107.1710   54.3460 C.cat  95  ARG95       0.5346
     37  NH1       36.3830  108.1330   54.2340 N.pl3  95  ARG95       0.1354
     38  NH2       34.6460  106.9310   53.3430 N.pl3  95  ARG95       0.1354
     39  N         41.4960   99.0650   51.4630 N.3   147  LYS147     -0.1245
     40  CA        40.9880  100.4260   51.3360 C.3   147  LYS147      0.1561
     41  C         42.1080  101.3480   51.8120 C.2   147  LYS147      0.2260
     42  O         42.0760  101.8630   52.9300 O.2   147  LYS147     -0.2867
     43  CB        39.7200  100.6240   52.1880 C.3   147  LYS147      0.0271
     44  CG        38.5200   99.7980   51.7220 C.3   147  LYS147      0.0035
     45  CD        37.2640   99.9780   52.5990 C.3   147  LYS147      0.0206
     46  CE        36.2800  101.0120   52.0410 C.3   147  LYS147      0.1093
     47  NZ        35.9620  100.6560   50.6440 N.3   147  LYS147     -0.1314
     48  N         42.4430  105.7580   46.1750 N.3   152  TYR152     -0.1241
     49  CA        41.3220  106.5800   45.7580 C.3   152  TYR152      0.1605
     50  C         41.5780  107.7890   44.8820 C.2   152  TYR152      0.2264
     51  O         40.6450  108.4990   44.5030 O.2   152  TYR152     -0.2867
     52  CB        40.4780  106.9050   46.9900 C.3   152  TYR152      0.0534
     53  CG        40.0020  105.5980   47.5850 C.ar  152  TYR152     -0.0201
     54  CD1       40.8450  104.8400   48.4030 C.ar  152  TYR152     -0.0009
     55  CD2       38.8050  105.0150   47.1620 C.ar  152  TYR152     -0.0009
     56  CE1       40.5250  103.5340   48.7640 C.ar  152  TYR152      0.0417
     57  CE2       38.4750  103.7060   47.5220 C.ar  152  TYR152      0.0417
     58  CZ        39.3470  102.9710   48.3160 C.ar  152  TYR152      0.1957
     59  OH        39.0780  101.6500   48.6080 O.3   152  TYR152     -0.2866
     60  N         40.0830  106.3790   42.0030 N.3   155  SER155     -0.1217
     61  CA        38.6280  106.4480   42.0660 C.3   155  SER155      0.1889
     62  C         38.1690  107.8890   41.8460 C.2   155  SER155      0.2288
     63  O         37.2150  108.1460   41.1070 O.2   155  SER155     -0.2866
     64  CB        38.1220  105.9560   43.4270 C.3   155  SER155      0.2089
     65  OG        38.3810  104.5730   43.6130 O.3   155  SER155     -0.2183
     66  N         35.6020  109.1880   39.0150 N.3   159  LYS159     -0.1245
     67  CA        34.3400  109.7870   39.4280 C.3   159  LYS159      0.1561
     68  C         34.1240  111.1680   38.8060 C.2   159  LYS159      0.2260
     69  O         33.0630  111.4370   38.2430 O.2   159  LYS159     -0.2867
     70  CB        34.2650  109.8740   40.9570 C.3   159  LYS159      0.0271
     71  CG        32.9070  110.3140   41.4830 C.3   159  LYS159      0.0035
     72  CD        31.7910  109.4700   40.8750 C.3   159  LYS159      0.0206
     73  CE        30.4390  109.7990   41.4910 C.3   159  LYS159      0.1093
     74  NZ        30.3420  109.3210   42.9020 N.3   159  LYS159     -0.1314
     75  N         27.9340  107.7090   37.9050 N.3   169  GLU169     -0.1245
     76  CA        29.0880  106.9810   38.3990 C.3   169  GLU169      0.1567
     77  C         29.9390  106.4360   37.2610 C.2   169  GLU169      0.2260
     78  O         29.4740  106.2970   36.1240 O.2   169  GLU169     -0.2867
     79  CB        28.6120  105.8340   39.2970 C.3   169  GLU169      0.0388
     80  CG        29.7190  104.9540   39.8450 C.3   169  GLU169      0.1160
     81  CD        30.6260  105.6980   40.8020 C.2   169  GLU169      0.3649
     82  OE1       30.1870  105.9890   41.9360 O.co2 169  GLU169     -0.2457
     83  OE2       31.7720  106.0000   40.4150 O.co2 169  GLU169     -0.2457
     84  N         33.8600  103.3840   40.7070 N.3   183  SER183     -0.1202
     85  CA        34.8810  104.1200   41.4490 C.3   183  SER183      0.2020
     86  C         34.8990  103.6340   42.8950 C.2   183  SER183      0.2619
     87  O         35.9030  103.7610   43.5900 O.2   183  SER183     -0.2717
     88  CB        34.6200  105.6340   41.3970 C.3   183  SER183      0.2103
     89  OG        33.4860  106.0030   42.1640 O.3   183  SER183     -0.2182
     90  N         33.7840  103.0620   43.3360 N.am  184  GLY184     -0.1942
     91  CA        33.7040  102.5510   44.6900 C.3   184  GLY184      0.2014
     92  C         32.5390  101.6010   44.8860 C.2   184  GLY184      0.2638
     93  O         31.9110  101.5950   45.9420 O.2   184  GLY184     -0.2714
     94  N         32.2500  100.7900   43.8720 N.am  185  GLU185     -0.1977
     95  CA        31.1450   99.8380   43.9370 C.3   185  GLU185      0.1602
     96  C         31.5000   98.5640   43.1790 C.2   185  GLU185      0.2287
     97  O         32.1310   98.6280   42.1240 O.2   185  GLU185     -0.2864
     98  CB        29.8710  100.4260   43.3030 C.3   185  GLU185      0.0415
     99  CG        29.3710  101.7490   43.8720 C.3   185  GLU185      0.1163
    100  CD        30.0530  102.9760   43.2730 C.2   185  GLU185      0.3649
    101  OE1       29.6250  104.1030   43.6070 O.co2 185  GLU185     -0.2457
    102  OE2       31.0100  102.8280   42.4780 O.co2 185  GLU185     -0.2457
    103  N         27.7850   98.3800   47.5900 N.3   243  GLY243     -0.1210
    104  CA        28.7570   99.0670   48.4180 C.3   243  GLY243      0.1956
    105  C         28.0270   99.5100   49.6660 C.2   243  GLY243      0.2613
    106  O         26.8000   99.6310   49.6400 O.2   243  GLY243     -0.2717
    107  N         28.7510   99.7510   50.7540 N.am  244  THR244     -0.1938
    108  CA        28.1100  100.1670   51.9960 C.3   244  THR244      0.2028
    109  C         27.2410  101.4130   51.8140 C.2   244  THR244      0.2642
    110  O         26.0570  101.4110   52.1580 O.2   244  THR244     -0.2714
    111  CB        29.1600  100.4170   53.1040 C.3   244  THR244      0.1808
    112  OG1       29.7490   99.1670   53.4820 O.3   244  THR244     -0.2208
    113  CG2       28.5180  101.0590   54.3330 C.3   244  THR244      0.0379
    114  N         27.8230  102.4710   51.2650 N.am  245  ALA245     -0.1963
    115  CA        27.0900  103.7120   51.0490 C.3   245  ALA245      0.1728
    116  C         26.0760  103.5690   49.9160 C.2   245  ALA245      0.2616
    117  O         24.9580  104.0710   50.0050 O.2   245  ALA245     -0.2715
    118  CB        28.0670  104.8480   50.7380 C.3   245  ALA245      0.0334
    119  N         26.4710  102.8670   48.8590 N.am  246  ALA246     -0.1977
    120  CA        25.6100  102.6760   47.7010 C.3   246  ALA246      0.1597
    121  C         24.5360  101.6090   47.8980 C.2   246  ALA246      0.2287
    122  O         23.5590  101.5640   47.1450 O.2   246  ALA246     -0.2864
    123  CB        26.4580  102.3330   46.4860 C.3   246  ALA246      0.0319
@<TRIPOS>BOND
     1    78    77    2
     2    77    76    1
     3    75    76    1
     4    69    68    2
     5    76    79    1
     6    68    67    1
     7    66    67    1
     8    79    80    1
     9    67    70    1
    10    80    81    1
    11    83    81   ar
    12    84    85    1
    13    81    82   ar
    14    72    71    1
    15    72    73    1
    16    70    71    1
    17    63    62    2
    18    88    85    1
    19    88    89    1
    20    85    86    1
    21    73    74    1
    22    62    61    1
    23    60    61    1
    24    61    64    1
    25    97    96    2
    26   102   100   ar
    27    86    90   am
    28    86    87    2
    29    96    95    1
    30   100   101   ar
    31   100    99    1
    32    98    99    1
    33    98    95    1
    34    90    91    1
    35    64    65    1
    36    94    95    1
    37    94    92   am
    38    51    50    2
    39    91    92    1
    40    50    49    1
    41    92    93    2
    42    49    48    1
    43    49    52    1
    44   123   120    1
    45    52    53    1
    46   122   121    2
    47    55    57   ar
    48    55    53   ar
    49    57    58   ar
    50    53    54   ar
    51   103   104    1
    52   120   121    1
    53   120   119    1
    54    58    59    1
    55    58    56   ar
    56    54    56   ar
    57   104   105    1
    58   119   116   am
    59   106   105    2
    60   105   107   am
    61   116   117    2
    62   116   115    1
    63    47    46    1
    64   118   115    1
    65   107   108    1
    66   115   114    1
    67   114   109   am
    68    40    39    1
    69    40    41    1
    70    40    43    1
    71    11    10   ar
    72    11     9   ar
    73    44    43    1
    74    44    45    1
    75    41    42    2
    76   109   108    1
    77   109   110    2
    78    10     8   ar
    79   108   111    1
    80    46    45    1
    81     9     7   ar
    82   111   112    1
    83   111   113    1
    84     8     6   ar
    85    38    36    1
    86     7     6   ar
    87    27    26    1
    88     6     5    1
    89    37    36    1
    90    36    35    2
    91    24    26   ar
    92    24    22   ar
    93    26    25   ar
    94    22    21   ar
    95     4     3    2
    96    25    23   ar
    97    35    34    1
    98    13    12    1
    99    13    14    1
   100     1     2    1
   101     5     2    1
   102    15    14    2
   103     3     2    1
   104    21    23   ar
   105    21    20    1
   106    34    33    1
   107    20    17    1
   108    33    32    1
   109    17    16    1
   110    17    18    1
   111    32    29    1
   112    29    28    1
   113    29    30    1
   114    18    19    2
   115    30    31    2
