@<TRIPOS>MOLECULE
tmp/2ej9A00.pdb
 165 159 0 0 0
SMALL
GASTEIGER

@<TRIPOS>ATOM
      1  N         23.1080   64.4760    4.1510 N.3    11  SER11      -0.1202
      2  CA        24.5520   64.2810    4.2150 C.3    11  SER11       0.2020
      3  C         25.2230   65.6440    4.2990 C.2    11  SER11       0.2619
      4  O         24.8800   66.5520    3.5320 O.2    11  SER11      -0.2717
      5  CB        25.0490   63.5450    2.9690 C.3    11  SER11       0.2103
      6  OG        26.4560   63.6310    2.8710 O.3    11  SER11      -0.2182
      7  N         26.1690   65.8060    5.2230 N.am   12  THR12      -0.1938
      8  CA        26.8470   67.0950    5.3400 C.3    12  THR12       0.2028
      9  C         27.6650   67.3720    4.0740 C.2    12  THR12       0.2642
     10  O         27.8300   68.5260    3.6740 O.2    12  THR12      -0.2714
     11  CB        27.7630   67.1630    6.5840 C.3    12  THR12       0.1808
     12  OG1       28.7220   66.0970    6.5500 O.3    12  THR12      -0.2208
     13  CG2       26.9310   67.0450    7.8680 C.3    12  THR12       0.0379
     14  N         28.1680   66.3170    3.4370 N.am   13  ASN13      -0.1971
     15  CA        28.9470   66.4910    2.2090 C.3    13  ASN13       0.1688
     16  C         28.0560   67.0420    1.0980 C.2    13  ASN13       0.2292
     17  O         28.3920   68.0360    0.4560 O.2    13  ASN13      -0.2864
     18  CB        29.5620   65.1600    1.7450 C.3    13  ASN13       0.1181
     19  CG        31.0520   65.0460    2.0710 C.2    13  ASN13       0.2629
     20  OD1       31.7550   64.2080    1.5030 O.2    13  ASN13      -0.2716
     21  ND2       31.5320   65.8760    2.9780 N.am   13  ASN13      -0.0877
     22  N         22.8290   61.9980   10.4110 N.3    34  GLN34      -0.1245
     23  CA        22.6280   62.0220    8.9630 C.3    34  GLN34       0.1566
     24  C         21.6520   60.9180    8.5750 C.2    34  GLN34       0.2260
     25  O         21.7420   59.7990    9.0820 O.2    34  GLN34      -0.2867
     26  CB        23.9600   61.8090    8.2320 C.3    34  GLN34       0.0367
     27  CG        25.0170   62.8620    8.5450 C.3    34  GLN34       0.0905
     28  CD        26.2920   62.6780    7.7290 C.2    34  GLN34       0.2608
     29  OE1       26.7410   63.5980    7.0450 O.2    34  GLN34      -0.2717
     30  NE2       26.8800   61.4860    7.8010 N.am   34  GLN34      -0.0878
     31  N         24.0420   59.2470    5.2650 N.3    37  GLY37      -0.1210
     32  CA        25.4850   59.4260    5.3080 C.3    37  GLY37       0.1956
     33  C         26.2160   58.5560    4.2990 C.2    37  GLY37       0.2612
     34  O         25.8740   57.3880    4.1250 O.2    37  GLY37      -0.2717
     35  N         27.2310   59.1110    3.6420 N.am   38  LYS38      -0.1965
     36  CA        27.9740   58.3510    2.6440 C.3    38  LYS38       0.1728
     37  C         29.4500   58.1010    2.9210 C.2    38  LYS38       0.2617
     38  O         30.1620   58.9470    3.4630 O.2    38  LYS38      -0.2715
     39  CB        27.8480   59.0190    1.2700 C.3    38  LYS38       0.0311
     40  CG        26.4560   58.9280    0.6650 C.3    38  LYS38       0.0038
     41  CD        26.5050   58.9850   -0.8580 C.3    38  LYS38       0.0206
     42  CE        27.2980   57.8060   -1.4300 C.3    38  LYS38       0.1093
     43  NZ        27.3160   57.7980   -2.9220 N.3    38  LYS38      -0.1314
     44  N         29.8980   56.9170    2.5280 N.am   39  GLY39      -0.1940
     45  CA        31.2890   56.5560    2.6820 C.3    39  GLY39       0.2014
     46  C         31.8720   56.4950    1.2820 C.2    39  GLY39       0.2638
     47  O         31.1810   56.8090    0.3000 O.2    39  GLY39      -0.2714
     48  N         33.1310   56.0870    1.1770 N.am   40  ARG40      -0.1977
     49  CA        33.7800   55.9970   -0.1200 C.3    40  ARG40       0.1597
     50  C         33.1670   54.9280   -1.0280 C.2    40  ARG40       0.2287
     51  O         32.7400   53.8700   -0.5840 O.2    40  ARG40      -0.2864
     52  CB        35.2670   55.6650    0.0540 C.3    40  ARG40       0.0334
     53  CG        36.1130   56.8010    0.6320 C.3    40  ARG40       0.0492
     54  CD        37.5140   56.3100    1.0010 C.3    40  ARG40       0.2205
     55  NE        38.2170   55.7060   -0.1290 N.pl3  40  ARG40      -0.0865
     56  CZ        38.7790   56.3920   -1.1180 C.cat  40  ARG40       0.5346
     57  NH1       38.7240   57.7190   -1.1200 N.pl3  40  ARG40       0.1354
     58  NH2       39.4010   55.7530   -2.1060 N.pl3  40  ARG40       0.1354
     59  N         29.5770   53.3070   -0.2420 N.3    43  ARG43      -0.1245
     60  CA        29.3750   52.8210    1.1150 C.3    43  ARG43       0.1563
     61  C         28.3880   53.6900    1.8750 C.2    43  ARG43       0.2260
     62  O         28.3250   54.9040    1.6790 O.2    43  ARG43      -0.2867
     63  CB        30.6790   52.8290    1.9090 C.3    43  ARG43       0.0307
     64  CG        31.7110   51.7890    1.5510 C.3    43  ARG43       0.0489
     65  CD        32.9250   52.0680    2.4020 C.3    43  ARG43       0.2205
     66  NE        34.0700   51.2160    2.1100 N.pl3  43  ARG43      -0.0865
     67  CZ        35.3080   51.5160    2.4880 C.cat  43  ARG43       0.5346
     68  NH1       35.5360   52.6390    3.1650 N.pl3  43  ARG43       0.1354
     69  NH2       36.3190   50.7090    2.1820 N.pl3  43  ARG43       0.1354
     70  N         27.2710   55.2310    5.4670 N.3    45  TRP45      -0.1241
     71  CA        27.9680   55.5750    6.6980 C.3    45  TRP45       0.1605
     72  C         26.9000   55.8090    7.7530 C.2    45  TRP45       0.2264
     73  O         26.2170   56.8360    7.7410 O.2    45  TRP45      -0.2867
     74  CB        28.8220   56.8360    6.5250 C.3    45  TRP45       0.0550
     75  CG        29.6230   57.1740    7.7600 C.ar   45  TRP45       0.0003
     76  CD1       29.2930   58.0740    8.7430 C.ar   45  TRP45       0.0946
     77  CD2       30.8580   56.5810    8.1610 C.ar   45  TRP45       0.0152
     78  NE1       30.2520   58.0740    9.7280 N.ar   45  TRP45      -0.2442
     79  CE2       31.2240   57.1660    9.3970 C.ar   45  TRP45       0.0810
     80  CE3       31.6970   55.6100    7.5960 C.ar   45  TRP45       0.0012
     81  CZ2       32.3910   56.8110   10.0760 C.ar   45  TRP45       0.0191
     82  CZ3       32.8610   55.2580    8.2740 C.ar   45  TRP45       0.0001
     83  CH2       33.1960   55.8590    9.4990 C.ar   45  TRP45       0.0015
     84  N         29.8650   64.1970   12.7150 N.3    53  TYR53      -0.1227
     85  CA        29.7400   64.2110   11.2600 C.3    53  TYR53       0.1736
     86  C         29.8010   65.6430   10.7460 C.2    53  TYR53       0.2595
     87  O         28.8920   66.4370   11.0040 O.2    53  TYR53      -0.2718
     88  CB        28.3960   63.6000   10.8520 C.3    53  TYR53       0.0548
     89  CG        28.0000   62.3860   11.6680 C.ar   53  TYR53      -0.0200
     90  CD1       28.6900   61.1850   11.5400 C.ar   53  TYR53      -0.0009
     91  CD2       26.9540   62.4510   12.5990 C.ar   53  TYR53      -0.0009
     92  CE1       28.3600   60.0800   12.3110 C.ar   53  TYR53       0.0417
     93  CE2       26.6150   61.3450   13.3780 C.ar   53  TYR53       0.0417
     94  CZ        27.3270   60.1620   13.2240 C.ar   53  TYR53       0.1957
     95  OH        27.0100   59.0490   13.9630 O.3    53  TYR53      -0.2866
     96  N         30.8630   65.9850   10.0250 N.am   54  PHE54      -0.1962
     97  CA        30.9640   67.3350    9.4900 C.3    54  PHE54       0.1771
     98  C         31.7530   67.3700    8.1900 C.2    54  PHE54       0.2620
     99  O         32.5090   66.4420    7.8710 O.2    54  PHE54      -0.2715
    100  CB        31.6000   68.2890   10.5070 C.3    54  PHE54       0.0574
    101  CG        33.0430   67.9730   10.8360 C.ar   54  PHE54      -0.0200
    102  CD1       33.3690   66.8970   11.6550 C.ar   54  PHE54      -0.0042
    103  CD2       34.0720   68.7640   10.3310 C.ar   54  PHE54      -0.0042
    104  CE1       34.7130   66.6100   11.9670 C.ar   54  PHE54      -0.0003
    105  CE2       35.4140   68.4890   10.6340 C.ar   54  PHE54      -0.0003
    106  CZ        35.7300   67.4090   11.4560 C.ar   54  PHE54      -0.0000
    107  N         31.5510   68.4400    7.4340 N.am   55  SER55      -0.1950
    108  CA        32.2410   68.6180    6.1650 C.3    55  SER55       0.1924
    109  C         32.8330   70.0200    6.1110 C.2    55  SER55       0.2314
    110  O         32.1420   71.0120    6.3660 O.2    55  SER55      -0.2863
    111  CB        31.2720   68.4220    4.9990 C.3    55  SER55       0.2116
    112  OG        30.6600   67.1400    5.0420 O.3    55  SER55      -0.2180
    113  N         41.1930   55.4590    6.4560 N.3    95  ASP95      -0.1239
    114  CA        40.4140   54.9290    7.5670 C.3    95  ASP95       0.1674
    115  C         41.1660   55.2430    8.8520 C.2    95  ASP95       0.2266
    116  O         42.3800   55.0420    8.9290 O.2    95  ASP95      -0.2867
    117  CB        40.2210   53.4130    7.4550 C.3    95  ASP95       0.1410
    118  CG        39.3820   53.0200    6.2590 C.2    95  ASP95       0.3668
    119  OD1       38.6160   53.8720    5.7650 O.co2  95  ASP95      -0.2456
    120  OD2       39.4710   51.8550    5.8250 O.co2  95  ASP95      -0.2456
    121  N         37.8070   50.1810   12.8680 N.3   106  LYS106     -0.1245
    122  CA        37.6110   51.5260   12.3370 C.3   106  LYS106      0.1561
    123  C         36.8040   52.4700   13.2310 C.2   106  LYS106      0.2260
    124  O         35.6560   52.1870   13.5870 O.2   106  LYS106     -0.2867
    125  CB        36.9550   51.4300   10.9520 C.3   106  LYS106      0.0271
    126  CG        36.9030   52.7470   10.1720 C.3   106  LYS106      0.0035
    127  CD        36.3210   52.5210    8.7740 C.3   106  LYS106      0.0206
    128  CE        36.2650   53.8040    7.9460 C.3   106  LYS106      0.1093
    129  NZ        35.8380   53.4980    6.5390 N.3   106  LYS106     -0.1314
    130  N         36.2610   57.7900    9.2420 N.3   109  GLY109     -0.1210
    131  CA        36.6980   57.8120    7.8570 C.3   109  GLY109      0.1956
    132  C         36.6060   59.2000    7.2600 C.2   109  GLY109      0.2612
    133  O         36.0010   60.1120    7.8460 O.2   109  GLY109     -0.2717
    134  N         37.2050   59.3550    6.0850 N.am  110  ILE110     -0.1965
    135  CA        37.2260   60.6290    5.3930 C.3   110  ILE110      0.1727
    136  C         36.8160   60.4620    3.9390 C.2   110  ILE110      0.2616
    137  O         37.2990   59.5650    3.2500 O.2   110  ILE110     -0.2715
    138  CB        38.6380   61.2440    5.4260 C.3   110  ILE110      0.0290
    139  CG1       39.1030   61.3880    6.8780 C.3   110  ILE110      0.0022
    140  CG2       38.6350   62.5990    4.6990 C.3   110  ILE110      0.0023
    141  CD1       40.5180   61.9100    7.0160 C.3   110  ILE110      0.0001
    142  N         35.9010   61.3190    3.4930 N.am  111  LEU111     -0.1977
    143  CA        35.4230   61.3020    2.1150 C.3   111  LEU111      0.1596
    144  C         35.6820   62.6960    1.5730 C.2   111  LEU111      0.2287
    145  O         35.1120   63.6760    2.0650 O.2   111  LEU111     -0.2864
    146  CB        33.9290   60.9960    2.0670 C.3   111  LEU111      0.0297
    147  CG        33.2870   61.0870    0.6790 C.3   111  LEU111      0.0022
    148  CD1       33.9720   60.1000   -0.2680 C.3   111  LEU111      0.0001
    149  CD2       31.7970   60.7910    0.7830 C.3   111  LEU111      0.0001
    150  N         34.8230   65.5740    4.0320 N.3   122  GLY122     -0.1210
    151  CA        33.8360   65.0180    4.9400 C.3   122  GLY122      0.1956
    152  C         34.4810   64.0960    5.9560 C.2   122  GLY122      0.2612
    153  O         35.1690   63.1350    5.6020 O.2   122  GLY122     -0.2717
    154  N         34.2420   64.3840    7.2290 N.am  123  ILE123     -0.1965
    155  CA        34.8280   63.6050    8.3080 C.3   123  ILE123      0.1727
    156  C         33.7830   63.0030    9.2270 C.2   123  ILE123      0.2616
    157  O         32.8940   63.6990    9.7340 O.2   123  ILE123     -0.2715
    158  CB        35.7780   64.4820    9.1440 C.3   123  ILE123      0.0290
    159  CG1       36.9430   64.9520    8.2610 C.3   123  ILE123      0.0022
    160  CG2       36.2660   63.7070   10.3690 C.3   123  ILE123      0.0023
    161  CD1       37.7520   66.0940    8.8360 C.3   123  ILE123      0.0001
    162  N         33.8860   61.6960    9.4250 N.am  124  GLY124     -0.1955
    163  CA        32.9610   61.0190   10.3080 C.3   124  GLY124      0.1869
    164  C         33.7640   60.3100   11.3790 C.2   124  GLY124      0.2309
    165  O         34.6640   59.5330   11.0660 O.2   124  GLY124     -0.2863
@<TRIPOS>BOND
     1    43    42    1
     2    58    56    1
     3    42    41    1
     4    57    56    1
     5    56    55    2
     6    50    51    2
     7    50    49    1
     8    41    40    1
     9   148   147    1
    10    59    60    1
    11    55    54    1
    12    49    52    1
    13    49    48    1
    14    52    53    1
    15    47    46    2
    16    17    16    2
    17    53    54    1
    18    40    39    1
    19   147   149    1
    20   147   146    1
    21    16    15    1
    22    60    61    1
    23    60    63    1
    24    48    46   am
    25    39    36    1
    26    46    45    1
    27    20    19    2
    28    64    63    1
    29    64    65    1
    30   144   145    2
    31   144   143    1
    32    62    61    2
    33    18    19    1
    34    18    15    1
    35   146   143    1
    36    19    21   am
    37    66    65    1
    38    66    67    2
    39   143   142    1
    40    69    67    1
    41    15    14    1
    42    67    68    1
    43    44    45    1
    44    44    37   am
    45    36    37    1
    46    36    35    1
    47     6     5    1
    48    37    38    2
    49     5     2    1
    50   137   136    2
    51    14     9   am
    52   142   136   am
    53     4     3    2
    54    35    33   am
    55    10     9    2
    56   136   135    1
    57   150   151    1
    58     9     8    1
    59    34    33    2
    60     1     2    1
    61     2     3    1
    62    33    32    1
    63     3     7   am
    64   140   138    1
    65   151   152    1
    66   111   112    1
    67   111   108    1
    68     7     8    1
    69    31    32    1
    70     8    11    1
    71   135   138    1
    72   135   134    1
    73   138   139    1
    74    70    71    1
    75   153   152    2
    76   119   118   ar
    77   120   118   ar
    78   152   154   am
    79   134   132   am
    80   109   108    1
    81   109   110    2
    82   108   107    1
    83   118   117    1
    84   113   114    1
    85    74    71    1
    86    74    75    1
    87   129   128    1
    88    12    11    1
    89    11    13    1
    90    71    72    1
    91   139   141    1
    92    29    28    2
    93   154   155    1
    94   132   133    2
    95   132   131    1
    96   107    98   am
    97   117   114    1
    98   114   115    1
    99    80    77   ar
   100    80    82   ar
   101    28    30   am
   102    28    27    1
   103    73    72    2
   104    75    77   ar
   105    75    76   ar
   106   131   130    1
   107    99    98    2
   108   128   127    1
   109    77    79   ar
   110    98    97    1
   111    26    27    1
   112    26    23    1
   113   159   161    1
   114   159   158    1
   115    82    83   ar
   116   155   158    1
   117   155   156    1
   118    24    23    1
   119    24    25    2
   120    76    78   ar
   121   127   126    1
   122   115   116    2
   123    23    22    1
   124   158   160    1
   125   156   162   am
   126   156   157    2
   127    79    78   ar
   128    79    81   ar
   129   162   163    1
   130    97    96    1
   131    97   100    1
   132    83    81   ar
   133    96    86   am
   134   126   125    1
   135   163   164    1
   136   103   105   ar
   137   103   101   ar
   138   100   101    1
   139   105   106   ar
   140    86    87    2
   141    86    85    1
   142   101   102   ar
   143    88    85    1
   144    88    89    1
   145   125   122    1
   146   165   164    2
   147    85    84    1
   148   106   104   ar
   149    90    89   ar
   150    90    92   ar
   151   102   104   ar
   152    89    91   ar
   153    92    94   ar
   154   122   121    1
   155   122   123    1
   156    91    93   ar
   157    94    93   ar
   158    94    95    1
   159   123   124    2
