@<TRIPOS>MOLECULE
tmp/2ejgB01.pdb
 117 115 0 0 0
SMALL
GASTEIGER

@<TRIPOS>ATOM
      1  N         34.0990    6.7910  -17.7840 N.3    51  ARG51      -0.1231
      2  CA        33.9310    8.2360  -17.9450 C.3    51  ARG51       0.1694
      3  C         33.0040    8.7160  -16.8280 C.2    51  ARG51       0.2592
      4  O         32.3090    7.9060  -16.2050 O.2    51  ARG51      -0.2718
      5  CB        33.2940    8.5630  -19.3050 C.3    51  ARG51       0.0321
      6  CG        31.7800    8.7570  -19.2370 C.3    51  ARG51       0.0489
      7  CD        30.9860    8.3720  -20.5010 C.3    51  ARG51       0.2205
      8  NE        30.1070    9.4290  -21.0190 N.pl3  51  ARG51      -0.0865
      9  CZ        29.8810    9.6950  -22.3070 C.cat  51  ARG51       0.5346
     10  NH1       30.4710    8.9910  -23.2620 N.pl3  51  ARG51       0.1354
     11  NH2       29.0540   10.6780  -22.6370 N.pl3  51  ARG51       0.1354
     12  N         32.9880   10.0230  -16.5710 N.am   52  LYS52      -0.1966
     13  CA        32.1150   10.5530  -15.5250 C.3    52  LYS52       0.1728
     14  C         30.7410   10.8840  -16.0930 C.2    52  LYS52       0.2616
     15  O         30.6130   11.7590  -16.9510 O.2    52  LYS52      -0.2715
     16  CB        32.7030   11.8140  -14.8920 C.3    52  LYS52       0.0311
     17  CG        31.9080   12.2690  -13.6670 C.3    52  LYS52       0.0038
     18  CD        32.1970   13.7110  -13.2730 C.3    52  LYS52       0.0206
     19  CE        31.5690   14.0410  -11.9190 C.3    52  LYS52       0.1093
     20  NZ        30.1210   13.6970  -11.8590 N.3    52  LYS52      -0.1314
     21  N         29.7190   10.1840  -15.6040 N.am   53  TRP53      -0.1960
     22  CA        28.3450   10.3980  -16.0480 C.3    53  TRP53       0.1771
     23  C         27.5900   11.2680  -15.0480 C.2    53  TRP53       0.2619
     24  O         27.4060   10.8910  -13.8880 O.2    53  TRP53      -0.2715
     25  CB        27.6280    9.0570  -16.2230 C.3    53  TRP53       0.0590
     26  CG        26.2230    9.2040  -16.7280 C.ar   53  TRP53       0.0006
     27  CD1       25.0800    9.2910  -15.9770 C.ar   53  TRP53       0.0946
     28  CD2       25.8180    9.3550  -18.0960 C.ar   53  TRP53       0.0152
     29  NE1       23.9920    9.4910  -16.7940 N.ar   53  TRP53      -0.2442
     30  CE2       24.4170    9.5340  -18.1000 C.ar   53  TRP53       0.0810
     31  CE3       26.5060    9.3600  -19.3180 C.ar   53  TRP53       0.0012
     32  CZ2       23.6890    9.7150  -19.2790 C.ar   53  TRP53       0.0191
     33  CZ3       25.7910    9.5390  -20.4800 C.ar   53  TRP53       0.0001
     34  CH2       24.3930    9.7140  -20.4550 C.ar   53  TRP53       0.0015
     35  N         27.1500   12.4330  -15.5150 N.am   54  GLU54      -0.1977
     36  CA        26.4340   13.3820  -14.6740 C.3    54  GLU54       0.1602
     37  C         25.0280   12.9020  -14.3280 C.2    54  GLU54       0.2287
     38  O         24.1680   12.7800  -15.1940 O.2    54  GLU54      -0.2864
     39  CB        26.3900   14.7470  -15.3580 C.3    54  GLU54       0.0415
     40  CG        27.7660   15.3140  -15.6960 C.3    54  GLU54       0.1163
     41  CD        28.6890   15.4310  -14.4830 C.2    54  GLU54       0.3649
     42  OE1       28.2510   15.9560  -13.4310 O.co2  54  GLU54      -0.2457
     43  OE2       29.8640   15.0070  -14.5890 O.co2  54  GLU54      -0.2457
     44  N         22.3600   14.2420  -12.0770 N.3    56  PRO56      -0.2116
     45  CA        21.6540   15.1890  -11.2050 C.3    56  PRO56       0.1372
     46  C         20.1810   14.7870  -11.0570 C.2    56  PRO56       0.2244
     47  O         19.6860   13.9390  -11.8050 O.2    56  PRO56      -0.2868
     48  CB        21.8380   16.5210  -11.9340 C.3    56  PRO56       0.0268
     49  CG        21.7960   16.1030  -13.3850 C.3    56  PRO56       0.0207
     50  CD        22.6410   14.8420  -13.3980 C.3    56  PRO56       0.0892
     51  N         17.9310    7.5540  -13.5070 N.3    61  TRP61      -0.1241
     52  CA        19.1630    6.7930  -13.3140 C.3    61  TRP61       0.1605
     53  C         18.8110    5.4350  -12.7220 C.2    61  TRP61       0.2264
     54  O         18.5610    5.3270  -11.5110 O.2    61  TRP61      -0.2867
     55  CB        20.0810    7.5380  -12.3430 C.3    61  TRP61       0.0550
     56  CG        20.0740    9.0080  -12.5380 C.ar   61  TRP61       0.0003
     57  CD1       19.8840    9.9610  -11.5830 C.ar   61  TRP61       0.0946
     58  CD2       20.2360    9.7050  -13.7790 C.ar   61  TRP61       0.0152
     59  NE1       19.9080   11.2120  -12.1500 N.ar   61  TRP61      -0.2442
     60  CE2       20.1230   11.0840  -13.4960 C.ar   61  TRP61       0.0810
     61  CE3       20.4640    9.2960  -15.1020 C.ar   61  TRP61       0.0012
     62  CZ2       20.2320   12.0580  -14.4910 C.ar   61  TRP61       0.0191
     63  CZ3       20.5720   10.2520  -16.0790 C.ar   61  TRP61       0.0001
     64  CH2       20.4540   11.6250  -15.7740 C.ar   61  TRP61       0.0015
     65  N         23.0220   14.1680  -27.3930 N.3   111  LYS111     -0.1231
     66  CA        22.8790   12.9950  -26.5230 C.3   111  LYS111      0.1693
     67  C         21.8330   13.1450  -25.4280 C.2   111  LYS111      0.2591
     68  O         21.9820   13.9720  -24.5250 O.2   111  LYS111     -0.2718
     69  CB        24.2150   12.6430  -25.8660 C.3   111  LYS111      0.0285
     70  CG        24.3000   11.1970  -25.4120 C.3   111  LYS111      0.0035
     71  CD        25.4730   10.9880  -24.4830 C.3   111  LYS111      0.0206
     72  CE        25.7070    9.5110  -24.2540 C.3   111  LYS111      0.1093
     73  NZ        26.7270    9.2350  -23.2150 N.3   111  LYS111     -0.1314
     74  N         20.7880   12.3250  -25.5020 N.am  112  ILE112     -0.1980
     75  CA        19.7220   12.3670  -24.5090 C.3   112  ILE112      0.1595
     76  C         19.7660   11.1710  -23.5410 C.2   112  ILE112      0.2287
     77  O         19.1870   11.2290  -22.4470 O.2   112  ILE112     -0.2864
     78  CB        18.3430   12.4070  -25.1840 C.3   112  ILE112      0.0276
     79  CG1       17.2820   12.8370  -24.1660 C.3   112  ILE112      0.0022
     80  CG2       18.0140   11.0350  -25.7690 C.3   112  ILE112      0.0022
     81  CD1       15.9000   13.0360  -24.7570 C.3   112  ILE112      0.0001
     82  N         18.0660   11.5140  -19.6630 N.3   131  ASN131     -0.1240
     83  CA        17.8070   12.9170  -19.3400 C.3   131  ASN131      0.1653
     84  C         16.3330   13.2600  -19.5060 C.2   131  ASN131      0.2266
     85  O         15.7710   13.1400  -20.6040 O.2   131  ASN131     -0.2867
     86  CB        18.6400   13.8260  -20.2310 C.3   131  ASN131      0.1155
     87  CG        20.1060   13.7290  -19.9270 C.2   131  ASN131      0.2627
     88  OD1       20.5120   13.5970  -18.7710 O.2   131  ASN131     -0.2716
     89  ND2       20.9220   13.7880  -20.9670 N.am  131  ASN131     -0.0877
     90  N         16.2720   16.9990  -15.6590 N.3   134  ASN134     -0.1240
     91  CA        17.5420   17.4250  -15.1110 C.3   134  ASN134      0.1653
     92  C         18.3030   18.3730  -16.0350 C.2   134  ASN134      0.2266
     93  O         18.0780   18.4110  -17.2490 O.2   134  ASN134     -0.2867
     94  CB        18.3910   16.1860  -14.8410 C.3   134  ASN134      0.1155
     95  CG        18.6730   15.3980  -16.1070 C.2   134  ASN134      0.2627
     96  OD1       17.7950   14.7120  -16.6270 O.2   134  ASN134     -0.2716
     97  ND2       19.9110   15.4720  -16.5930 N.am  134  ASN134     -0.0877
     98  N         24.7290   18.5480  -19.6720 N.3   137  PRO137     -0.2102
     99  CA        25.9990   19.1590  -20.0740 C.3   137  PRO137      0.1504
    100  C         25.8110   19.7760  -21.4620 C.2   137  PRO137      0.2575
    101  O         24.7710   19.5750  -22.1010 O.2   137  PRO137     -0.2718
    102  CB        26.9640   17.9730  -20.1120 C.3   137  PRO137      0.0282
    103  CG        26.2900   16.9120  -19.2760 C.3   137  PRO137      0.0208
    104  CD        24.8610   17.0810  -19.6620 C.3   137  PRO137      0.0893
    105  N         26.8080   20.5230  -21.9280 N.am  138  ASN138     -0.1975
    106  CA        26.7360   21.1480  -23.2430 C.3   138  ASN138      0.1688
    107  C         26.7930   20.1030  -24.3590 C.2   138  ASN138      0.2292
    108  O         27.5390   19.1330  -24.3060 O.2   138  ASN138     -0.2864
    109  CB        27.9160   22.1140  -23.3700 C.3   138  ASN138      0.1181
    110  CG        27.5650   23.4320  -22.7280 C.2   138  ASN138      0.2629
    111  OD1       26.7140   24.1790  -23.2020 O.2   138  ASN138     -0.2716
    112  ND2       28.2810   23.7370  -21.6330 N.am  138  ASN138     -0.0877
    113  N         24.3930   18.1850  -24.9960 N.3   140  ALA140     -0.1245
    114  CA        23.3620   17.2060  -24.6730 C.3   140  ALA140      0.1562
    115  C         21.9610   17.8150  -24.7720 C.2   140  ALA140      0.2260
    116  O         21.7850   18.9880  -25.0770 O.2   140  ALA140     -0.2867
    117  CB        23.6130   16.7000  -23.2520 C.3   140  ALA140      0.0290
@<TRIPOS>BOND
     1    65    66    1
     2    66    69    1
     3    66    67    1
     4    69    70    1
     5    80    78    1
     6    74    67   am
     7    74    75    1
     8    67    68    2
     9    70    71    1
    10    78    75    1
    11    78    79    1
    12   116   115    2
    13   113   114    1
    14   115   114    1
    15    81    79    1
    16   114   117    1
    17    75    76    1
    18    71    72    1
    19   107   108    2
    20   107   106    1
    21    72    73    1
    22    76    77    2
    23   109   106    1
    24   109   110    1
    25    10     9    1
    26   106   105    1
    27   111   110    2
    28   110   112   am
    29    11     9    1
    30     9     8    2
    31   101   100    2
    32   105   100   am
    33   100    99    1
    34     8     7    1
    35    89    87   am
    36    85    84    2
    37     7     6    1
    38    33    34   ar
    39    33    31   ar
    40    34    32   ar
    41    86    87    1
    42    86    83    1
    43   102    99    1
    44   102   103    1
    45    99    98    1
    46    87    88    2
    47    98   104    1
    48    82    83    1
    49   104   103    1
    50    84    83    1
    51    31    28   ar
    52     5     6    1
    53     5     2    1
    54    32    30   ar
    55    30    28   ar
    56    30    29   ar
    57    28    26   ar
    58     2     1    1
    59     2     3    1
    60    93    92    2
    61    15    14    2
    62     3    12   am
    63     3     4    2
    64    29    27   ar
    65    26    25    1
    66    26    27   ar
    67    96    95    2
    68    97    95   am
    69    12    13    1
    70    25    22    1
    71    95    94    1
    72    14    21   am
    73    14    13    1
    74    63    64   ar
    75    63    61   ar
    76    22    21    1
    77    22    23    1
    78    92    91    1
    79    64    62   ar
    80    40    39    1
    81    40    41    1
    82    90    91    1
    83    13    16    1
    84    35    23   am
    85    35    36    1
    86    39    36    1
    87    38    37    2
    88    91    94    1
    89    61    58   ar
    90    23    24    2
    91    16    17    1
    92    36    37    1
    93    43    41   ar
    94    62    60   ar
    95    41    42   ar
    96    58    60   ar
    97    58    56   ar
    98    17    18    1
    99    51    52    1
   100    60    59   ar
   101    50    49    1
   102    50    44    1
   103    49    48    1
   104    52    53    1
   105    52    55    1
   106    18    19    1
   107    53    54    2
   108    56    55    1
   109    56    57   ar
   110    59    57   ar
   111    44    45    1
   112    48    45    1
   113    19    20    1
   114    47    46    2
   115    45    46    1
