@<TRIPOS>MOLECULE
tmp/2ejjA02.pdb
 100 96 0 0 0
SMALL
GASTEIGER

@<TRIPOS>ATOM
      1  N         36.8630   84.0080   65.5010 N.3    35  TYR35      -0.1227
      2  CA        36.4170   83.3910   66.7410 C.3    35  TYR35       0.1736
      3  C         35.8590   84.4100   67.7350 C.2    35  TYR35       0.2596
      4  O         35.2580   84.0330   68.7410 O.2    35  TYR35      -0.2718
      5  CB        37.5670   82.5970   67.3800 C.3    35  TYR35       0.0548
      6  CG        38.7730   83.4180   67.8050 C.ar   35  TYR35      -0.0200
      7  CD1       38.7790   84.1160   69.0150 C.ar   35  TYR35      -0.0009
      8  CD2       39.9150   83.4740   67.0090 C.ar   35  TYR35      -0.0009
      9  CE1       39.8980   84.8430   69.4210 C.ar   35  TYR35       0.0417
     10  CE2       41.0360   84.1990   67.4030 C.ar   35  TYR35       0.0417
     11  CZ        41.0190   84.8790   68.6110 C.ar   35  TYR35       0.1957
     12  OH        42.1250   85.5800   69.0080 O.3    35  TYR35      -0.2866
     13  N         36.0460   85.6990   67.4550 N.am   36  THR36      -0.1953
     14  CA        35.5410   86.7360   68.3520 C.3    36  THR36       0.1897
     15  C         34.0990   87.0980   68.0250 C.2    36  THR36       0.2313
     16  O         33.4160   87.7340   68.8270 O.2    36  THR36      -0.2863
     17  CB        36.3980   88.0240   68.2860 C.3    36  THR36       0.1794
     18  OG1       36.5240   88.4480   66.9230 O.3    36  THR36      -0.2208
     19  CG2       37.7720   87.7830   68.8770 C.3    36  THR36       0.0378
     20  N         42.3120   80.9800   68.1470 N.3    60  ARG60      -0.1245
     21  CA        42.5070   81.7710   69.3570 C.3    60  ARG60       0.1563
     22  C         43.8930   81.5520   69.9390 C.2    60  ARG60       0.2260
     23  O         44.5530   82.4990   70.3640 O.2    60  ARG60      -0.2867
     24  CB        41.4610   81.4200   70.4170 C.3    60  ARG60       0.0307
     25  CG        41.6690   82.1680   71.7300 C.3    60  ARG60       0.0489
     26  CD        40.6830   81.7250   72.7810 C.3    60  ARG60       0.2205
     27  NE        39.3180   82.0920   72.4290 N.pl3  60  ARG60      -0.0865
     28  CZ        38.8190   83.3180   72.5490 C.cat  60  ARG60       0.5346
     29  NH1       39.5740   84.3000   73.0200 N.pl3  60  ARG60       0.1354
     30  NH2       37.5620   83.5590   72.2000 N.pl3  60  ARG60       0.1354
     31  N         46.5340   84.5250   70.7690 N.3    64  GLU64      -0.1245
     32  CA        46.9270   84.7740   72.1470 C.3    64  GLU64       0.1567
     33  C         48.2880   84.2150   72.5260 C.2    64  GLU64       0.2260
     34  O         49.0110   84.8260   73.3100 O.2    64  GLU64      -0.2867
     35  CB        45.8520   84.2450   73.0890 C.3    64  GLU64       0.0388
     36  CG        44.4670   84.6810   72.6690 C.3    64  GLU64       0.1160
     37  CD        43.4090   84.3250   73.6780 C.2    64  GLU64       0.3649
     38  OE1       43.6580   83.4350   74.5160 O.co2  64  GLU64      -0.2457
     39  OE2       42.3200   84.9280   73.6230 O.co2  64  GLU64      -0.2457
     40  N         35.1530   94.3630   72.4870 N.3    91  ALA91      -0.1231
     41  CA        34.8180   93.0690   73.0710 C.3    91  ALA91       0.1694
     42  C         35.7890   91.9770   72.6270 C.2    91  ALA91       0.2593
     43  O         35.3830   90.8600   72.3190 O.2    91  ALA91      -0.2718
     44  CB        33.3830   92.6790   72.7210 C.3    91  ALA91       0.0304
     45  N         37.0700   92.3300   72.5820 N.am   92  THR92      -0.1939
     46  CA        38.1500   91.4130   72.2350 C.3    92  THR92       0.2028
     47  C         39.3140   91.8740   73.0970 C.2    92  THR92       0.2642
     48  O         39.2060   92.8760   73.7960 O.2    92  THR92      -0.2714
     49  CB        38.6150   91.5440   70.7710 C.3    92  THR92       0.1808
     50  OG1       39.3210   92.7840   70.6100 O.3    92  THR92      -0.2208
     51  CG2       37.4280   91.4950   69.8140 C.3    92  THR92       0.0379
     52  N         40.4250   91.1530   73.0480 N.am   93  THR93      -0.1950
     53  CA        41.6030   91.5540   73.8040 C.3    93  THR93       0.1897
     54  C         42.7120   91.8830   72.8040 C.2    93  THR93       0.2313
     55  O         43.8920   91.8810   73.1540 O.2    93  THR93      -0.2863
     56  CB        42.0920   90.4340   74.7610 C.3    93  THR93       0.1794
     57  OG1       42.3570   89.2380   74.0170 O.3    93  THR93      -0.2208
     58  CG2       41.0430   90.1430   75.8250 C.3    93  THR93       0.0378
     59  N         29.1830   89.9140   79.2340 N.3   135  THR135     -0.1218
     60  CA        29.0750   88.7890   78.3210 C.3   135  THR135      0.1862
     61  C         28.3970   87.6390   79.0620 C.2   135  THR135      0.2287
     62  O         28.7590   87.3270   80.1960 O.2   135  THR135     -0.2866
     63  CB        30.4630   88.3090   77.8670 C.3   135  THR135      0.1770
     64  OG1       31.1170   89.3590   77.1460 O.3   135  THR135     -0.2211
     65  CG2       30.3400   87.0680   76.9830 C.3   135  THR135      0.0375
     66  N         26.6180   90.9110   75.5540 N.3   165  PHE165     -0.1227
     67  CA        27.2220   90.1950   74.4440 C.3   165  PHE165      0.1736
     68  C         26.9210   88.7300   74.7620 C.2   165  PHE165      0.2595
     69  O         26.8940   88.3370   75.9310 O.2   165  PHE165     -0.2718
     70  CB        28.7370   90.4290   74.4160 C.3   165  PHE165      0.0547
     71  CG        29.1350   91.8410   74.0630 C.ar  165  PHE165     -0.0202
     72  CD1       29.1180   92.2740   72.7410 C.ar  165  PHE165     -0.0042
     73  CD2       29.5380   92.7320   75.0520 C.ar  165  PHE165     -0.0042
     74  CE1       29.5000   93.5750   72.4050 C.ar  165  PHE165     -0.0003
     75  CE2       29.9220   94.0380   74.7300 C.ar  165  PHE165     -0.0003
     76  CZ        29.9040   94.4590   73.4050 C.ar  165  PHE165     -0.0000
     77  N         26.6660   87.9300   73.7350 N.am  166  LEU166     -0.1966
     78  CA        26.3690   86.5270   73.9590 C.3   166  LEU166      0.1728
     79  C         27.5670   85.6860   73.5410 C.2   166  LEU166      0.2616
     80  O         28.2620   86.0020   72.5730 O.2   166  LEU166     -0.2715
     81  CB        25.0960   86.1380   73.2090 C.3   166  LEU166      0.0311
     82  CG        23.9180   87.0440   73.6010 C.3   166  LEU166      0.0022
     83  CD1       22.6420   86.5330   72.9600 C.3   166  LEU166      0.0001
     84  CD2       23.7640   87.0880   75.1250 C.3   166  LEU166      0.0001
     85  N         27.8110   84.6170   74.2880 N.am  167  ASP167     -0.1957
     86  CA        28.9620   83.7660   74.0400 C.3   167  ASP167      0.1840
     87  C         29.0150   83.0860   72.6750 C.2   167  ASP167      0.2621
     88  O         28.0030   82.9140   71.9960 O.2   167  ASP167     -0.2715
     89  CB        29.0680   82.7050   75.1380 C.3   167  ASP167      0.1450
     90  CG        30.5050   82.3160   75.4330 C.2   167  ASP167      0.3671
     91  OD1       31.4030   82.7050   74.6520 O.co2 167  ASP167     -0.2456
     92  OD2       30.7390   81.6210   76.4430 O.co2 167  ASP167     -0.2456
     93  N         30.2280   82.7150   72.2840 N.am  168  ILE168     -0.1977
     94  CA        30.4620   82.0220   71.0300 C.3   168  ILE168      0.1596
     95  C         31.6760   81.1090   71.1650 C.2   168  ILE168      0.2287
     96  O         32.7360   81.5260   71.6340 O.2   168  ILE168     -0.2864
     97  CB        30.6980   83.0100   69.8500 C.3   168  ILE168      0.0276
     98  CG1       31.2530   82.2540   68.6390 C.3   168  ILE168      0.0022
     99  CG2       31.6570   84.1070   70.2630 C.3   168  ILE168      0.0022
    100  CD1       31.5080   83.1230   67.4250 C.3   168  ILE168      0.0001
@<TRIPOS>BOND
     1     1     2    1
     2     2     5    1
     3     2     3    1
     4    18    17    1
     5     8    10   ar
     6     8     6   ar
     7     5     6    1
     8    10    11   ar
     9   100    98    1
    10    13     3   am
    11    13    14    1
    12     3     4    2
    13     6     7   ar
    14    15    14    1
    15    15    16    2
    16    20    21    1
    17    17    14    1
    18    17    19    1
    19    11    12    1
    20    11     9   ar
    21    98    97    1
    22     7     9   ar
    23    21    22    1
    24    21    24    1
    25    51    49    1
    26    97    99    1
    27    97    94    1
    28    22    23    2
    29    24    25    1
    30    50    49    1
    31    31    32    1
    32    49    46    1
    33    94    95    1
    34    94    93    1
    35    95    96    2
    36    25    26    1
    37    88    87    2
    38    32    33    1
    39    32    35    1
    40    30    28    1
    41    46    45    1
    42    46    47    1
    43    93    87   am
    44    43    42    2
    45    74    72   ar
    46    74    76   ar
    47    27    28    2
    48    27    26    1
    49    40    41    1
    50    33    34    2
    51    28    29    1
    52    80    79    2
    53    45    42   am
    54    42    41    1
    55    36    35    1
    56    36    37    1
    57    87    86    1
    58    44    41    1
    59    72    71   ar
    60    54    55    2
    61    54    53    1
    62    83    82    1
    63    52    47   am
    64    52    53    1
    65    47    48    2
    66    81    82    1
    67    81    78    1
    68    76    75   ar
    69    79    78    1
    70    79    85   am
    71    82    84    1
    72    39    37   ar
    73    37    38   ar
    74    77    78    1
    75    77    68   am
    76    53    56    1
    77    57    56    1
    78    86    85    1
    79    86    89    1
    80    71    70    1
    81    71    73   ar
    82    70    67    1
    83    67    68    1
    84    67    66    1
    85    91    90   ar
    86    75    73   ar
    87    56    58    1
    88    68    69    2
    89    89    90    1
    90    90    92   ar
    91    65    63    1
    92    64    63    1
    93    63    60    1
    94    60    61    1
    95    60    59    1
    96    61    62    2
