@<TRIPOS>MOLECULE
tmp/2ejlB00.pdb
 115 108 0 0 0
SMALL
GASTEIGER

@<TRIPOS>ATOM
      1  N         30.8910   34.3360  136.0250 N.3   137  GLU137     -0.1245
      2  CA        30.5210   34.0710  134.6340 C.3   137  GLU137      0.1567
      3  C         30.2840   35.3620  133.8620 C.2   137  GLU137      0.2260
      4  O         30.6330   35.4710  132.6970 O.2   137  GLU137     -0.2867
      5  CB        29.2800   33.2050  134.5880 C.3   137  GLU137      0.0388
      6  CG        28.8760   32.8200  133.1890 C.3   137  GLU137      0.1160
      7  CD        27.6930   31.8760  133.1700 C.2   137  GLU137      0.3649
      8  OE1       27.6940   30.9000  133.9520 O.co2 137  GLU137     -0.2457
      9  OE2       26.7730   32.1070  132.3630 O.co2 137  GLU137     -0.2457
     10  N         17.1900   34.0190  136.3790 N.3   184  ASN184     -0.1225
     11  CA        17.9410   32.9670  137.0650 C.3   184  ASN184      0.1785
     12  C         19.4620   33.1580  137.0120 C.2   184  ASN184      0.2597
     13  O         20.1740   32.6950  137.8980 O.2   184  ASN184     -0.2718
     14  CB        17.4960   31.5660  136.6200 C.3   184  ASN184      0.1169
     15  CG        17.9000   31.2430  135.2080 C.2   184  ASN184      0.2627
     16  OD1       18.0030   32.1300  134.3540 O.2   184  ASN184     -0.2716
     17  ND2       18.1450   29.9620  134.9500 N.am  184  ASN184     -0.0877
     18  N         19.9350   33.8680  135.9790 N.am  185  PHE185     -0.1976
     19  CA        21.3210   34.3190  135.9020 C.3   185  PHE185      0.1639
     20  C         21.3510   35.7950  135.5400 C.2   185  PHE185      0.2290
     21  O         21.7340   36.1730  134.4320 O.2   185  PHE185     -0.2864
     22  CB        22.1080   33.4790  134.8880 C.3   185  PHE185      0.0560
     23  CG        22.3620   32.0820  135.3430 C.ar  185  PHE185     -0.0200
     24  CD1       21.5030   31.0530  134.9770 C.ar  185  PHE185     -0.0042
     25  CD2       23.4680   31.7870  136.1440 C.ar  185  PHE185     -0.0042
     26  CE1       21.7430   29.7490  135.4110 C.ar  185  PHE185     -0.0003
     27  CE2       23.7000   30.4900  136.5850 C.ar  185  PHE185     -0.0003
     28  CZ        22.8420   29.4770  136.2140 C.ar  185  PHE185     -0.0000
     29  N         24.0140   36.1440  132.4920 N.3   189  ILE189     -0.1245
     30  CA        23.3680   36.0800  131.1720 C.3   189  ILE189      0.1561
     31  C         22.8890   37.4680  130.7230 C.2   189  ILE189      0.2260
     32  O         23.0030   37.8260  129.5540 O.2   189  ILE189     -0.2867
     33  CB        22.2220   35.0440  131.1500 C.3   189  ILE189      0.0252
     34  CG1       22.7850   33.6080  131.2580 C.3   189  ILE189      0.0019
     35  CG2       21.3890   35.1730  129.8790 C.3   189  ILE189      0.0019
     36  CD1       21.7280   32.5050  131.2680 C.3   189  ILE189      0.0001
     37  N         17.3000   31.2030  123.5630 N.3   288  GLU288     -0.1245
     38  CA        17.6730   30.0380  124.3530 C.3   288  GLU288      0.1567
     39  C         16.4950   29.8080  125.2900 C.2   288  GLU288      0.2260
     40  O         16.1340   30.6950  126.0650 O.2   288  GLU288     -0.2867
     41  CB        18.9880   30.2390  125.1210 C.3   288  GLU288      0.0388
     42  CG        19.4710   28.9550  125.8160 C.3   288  GLU288      0.1160
     43  CD        19.1260   28.9210  127.3030 C.2   288  GLU288      0.3649
     44  OE1       18.0380   28.4090  127.6830 O.co2 288  GLU288     -0.2457
     45  OE2       19.9460   29.4240  128.0970 O.co2 288  GLU288     -0.2457
     46  N         17.4890   26.1650  136.7190 N.3   321  LYS321     -0.1245
     47  CA        18.4900   26.3460  135.6690 C.3   321  LYS321      0.1561
     48  C         18.0270   25.6300  134.4240 C.2   321  LYS321      0.2260
     49  O         17.4750   24.5250  134.5030 O.2   321  LYS321     -0.2867
     50  CB        19.8350   25.7640  136.0950 C.3   321  LYS321      0.0271
     51  CG        20.4430   26.4180  137.3220 C.3   321  LYS321      0.0035
     52  CD        21.8400   25.8850  137.6090 C.3   321  LYS321      0.0206
     53  CE        22.4320   26.5070  138.8460 C.3   321  LYS321      0.1093
     54  NZ        23.8380   26.0680  139.1130 N.3   321  LYS321     -0.1314
     55  N         19.9040   24.2210  132.5650 N.3   322  SER322     -0.1217
     56  CA        20.8450   23.1120  132.5030 C.3   322  SER322      0.1889
     57  C         20.5980   22.0390  133.5600 C.2   322  SER322      0.2288
     58  O         21.3140   21.0400  133.5850 O.2   322  SER322     -0.2866
     59  CB        22.2420   23.6630  132.7580 C.3   322  SER322      0.2089
     60  OG        22.2270   24.4160  133.9590 O.3   322  SER322     -0.2183
     61  N         19.2280   20.5800  125.4630 N.3   444  LEU444     -0.1245
     62  CA        20.1820   21.5360  126.0140 C.3   444  LEU444      0.1561
     63  C         21.3880   20.8950  126.6770 C.2   444  LEU444      0.2260
     64  O         22.4890   20.9070  126.1010 O.2   444  LEU444     -0.2867
     65  CB        19.4980   22.5490  126.9400 C.3   444  LEU444      0.0270
     66  CG        20.3190   23.7880  127.3320 C.3   444  LEU444      0.0019
     67  CD1       20.9800   24.4620  126.1320 C.3   444  LEU444      0.0001
     68  CD2       19.4600   24.7990  128.0860 C.3   444  LEU444      0.0001
     69  N         28.0500   16.0860  129.1750 N.3   469  TYR469     -0.1241
     70  CA        29.1240   15.9670  130.1680 C.3   469  TYR469      0.1605
     71  C         29.2530   14.5420  130.6640 C.2   469  TYR469      0.2264
     72  O         28.2580   13.9140  130.9800 O.2   469  TYR469     -0.2867
     73  CB        28.8580   16.8740  131.3780 C.3   469  TYR469      0.0534
     74  CG        28.6570   18.3290  131.0360 C.ar  469  TYR469     -0.0201
     75  CD1       27.4030   18.8150  130.6620 C.ar  469  TYR469     -0.0009
     76  CD2       29.7260   19.2260  131.0920 C.ar  469  TYR469     -0.0009
     77  CE1       27.2150   20.1640  130.3550 C.ar  469  TYR469      0.0417
     78  CE2       29.5480   20.5640  130.7980 C.ar  469  TYR469      0.0417
     79  CZ        28.2990   21.0210  130.4160 C.ar  469  TYR469      0.1957
     80  OH        28.1440   22.3550  130.1160 O.3   469  TYR469     -0.2866
     81  N         26.2040   18.4260  135.1370 N.3   474  ILE474     -0.1231
     82  CA        25.7690   18.9160  133.8200 C.3   474  ILE474      0.1692
     83  C         25.4350   20.4050  133.8260 C.2   474  ILE474      0.2593
     84  O         25.0060   20.9600  132.8130 O.2   474  ILE474     -0.2718
     85  CB        24.5900   18.0700  133.2230 C.3   474  ILE474      0.0266
     86  CG1       23.2680   18.2580  134.0000 C.3   474  ILE474      0.0019
     87  CG2       24.9880   16.6010  133.1680 C.3   474  ILE474      0.0020
     88  CD1       22.0480   17.7200  133.2680 C.3   474  ILE474      0.0001
     89  N         25.6660   21.0450  134.9680 N.am  475  THR475     -0.1939
     90  CA        25.4350   22.4660  135.0980 C.3   475  THR475      0.2028
     91  C         26.7790   23.2070  135.1480 C.2   475  THR475      0.2643
     92  O         27.8470   22.5850  135.2570 O.2   475  THR475     -0.2714
     93  CB        24.6340   22.7660  136.3750 C.3   475  THR475      0.1808
     94  OG1       25.3860   22.3170  137.5080 O.3   475  THR475     -0.2208
     95  CG2       23.2840   22.0770  136.3610 C.3   475  THR475      0.0379
     96  N         26.7030   24.5330  135.1030 N.am  476  GLY476     -0.1939
     97  CA        27.8870   25.3770  135.2550 C.3   476  GLY476      0.2014
     98  C         28.8630   25.4250  134.0970 C.2   476  GLY476      0.2638
     99  O         30.0720   25.5230  134.3160 O.2   476  GLY476     -0.2714
    100  N         28.3430   25.3690  132.8710 N.am  477  ALA477     -0.1977
    101  CA        29.1730   25.5530  131.6670 C.3   477  ALA477      0.1597
    102  C         30.0580   26.7800  131.8310 C.2   477  ALA477      0.2287
    103  O         29.5730   27.8410  132.1880 O.2   477  ALA477     -0.2864
    104  CB        28.2930   25.7150  130.4390 C.3   477  ALA477      0.0319
    105  N         28.0130   27.2890  125.0860 N.3   484  PHE484     -0.1241
    106  CA        26.7300   26.9260  125.7330 C.3   484  PHE484      0.1605
    107  C         25.5080   27.2270  124.8750 C.2   484  PHE484      0.2264
    108  O         25.2840   28.3690  124.4890 O.2   484  PHE484     -0.2867
    109  CB        26.5530   27.5980  127.1060 C.3   484  PHE484      0.0534
    110  CG        25.3510   27.0930  127.8520 C.ar  484  PHE484     -0.0203
    111  CD1       25.3670   25.8180  128.4470 C.ar  484  PHE484     -0.0042
    112  CD2       24.1780   27.8500  127.9090 C.ar  484  PHE484     -0.0042
    113  CE1       24.2320   25.3120  129.1110 C.ar  484  PHE484     -0.0003
    114  CE2       23.0450   27.3630  128.5820 C.ar  484  PHE484     -0.0003
    115  CZ        23.0790   26.0870  129.1800 C.ar  484  PHE484     -0.0000
@<TRIPOS>BOND
     1    37    38    1
     2    38    41    1
     3    38    39    1
     4   108   107    2
     5   107   106    1
     6   105   106    1
     7    41    42    1
     8    39    40    2
     9    61    62    1
    10   106   109    1
    11    42    43    1
    12    62    63    1
    13    62    65    1
    14    64    63    2
    15    67    66    1
    16    65    66    1
    17   109   110    1
    18    43    44   ar
    19    43    45   ar
    20    66    68    1
    21   110   112   ar
    22   110   111   ar
    23   112   114   ar
    24   111   113   ar
    25   114   115   ar
    26   113   115   ar
    27    69    70    1
    28    32    31    2
    29    35    33    1
    30    80    79    1
    31    70    71    1
    32    70    73    1
    33    77    79   ar
    34    77    75   ar
    35    79    78   ar
    36   104   101    1
    37    75    74   ar
    38    71    72    2
    39    31    30    1
    40    78    76   ar
    41    74    76   ar
    42    74    73    1
    43    33    30    1
    44    33    34    1
    45    30    29    1
    46    34    36    1
    47   101   102    1
    48   101   100    1
    49   102   103    2
    50     9     7   ar
    51    56    55    1
    52    56    59    1
    53    56    57    1
    54     4     3    2
    55    59    60    1
    56    84    83    2
    57   100    98   am
    58    87    85    1
    59     7     6    1
    60     7     8   ar
    61     6     5    1
    62    85    82    1
    63    85    86    1
    64    88    86    1
    65    57    58    2
    66    82    83    1
    67    82    81    1
    68    83    89   am
    69     3     2    1
    70    98    99    2
    71    98    97    1
    72    16    15    2
    73    48    49    2
    74    48    47    1
    75    21    20    2
    76     5     2    1
    77     2     1    1
    78    22    23    1
    79    22    19    1
    80    17    15   am
    81    89    90    1
    82    24    23   ar
    83    24    26   ar
    84    90    91    1
    85    90    93    1
    86    96    91   am
    87    96    97    1
    88    91    92    2
    89    15    14    1
    90    23    25   ar
    91    26    28   ar
    92    20    19    1
    93    47    50    1
    94    47    46    1
    95    19    18    1
    96    18    12   am
    97    50    51    1
    98    25    27   ar
    99    28    27   ar
   100    95    93    1
   101    93    94    1
   102    10    11    1
   103    14    11    1
   104    12    11    1
   105    12    13    2
   106    51    52    1
   107    52    53    1
   108    53    54    1
