@<TRIPOS>MOLECULE
tmp/2ejyA00.pdb
 169 160 0 0 0
SMALL
GASTEIGER

@<TRIPOS>ATOM
      1  N         -5.1080   -3.0500   11.8760 N.3     8  LYS8       -0.1245
      2  CA        -5.7870   -4.0890   11.1140 C.3     8  LYS8        0.1561
      3  C         -5.8880   -5.3680   11.9410 C.2     8  LYS8        0.2260
      4  O         -4.8800   -6.0180   12.2210 O.2     8  LYS8       -0.2867
      5  CB        -5.0380   -4.3660    9.8080 C.3     8  LYS8        0.0271
      6  CG        -5.9570   -4.6350    8.6260 C.3     8  LYS8        0.0035
      7  CD        -5.7190   -6.0160    8.0350 C.3     8  LYS8        0.0206
      8  CE        -4.6240   -5.9870    6.9790 C.3     8  LYS8        0.1093
      9  NZ        -5.1110   -5.4250    5.6900 N.3     8  LYS8       -0.1314
     10  N         -7.7800   -7.5440    2.6310 N.3    13  PRO13      -0.2102
     11  CA        -7.0540   -6.4640    1.9550 C.3    13  PRO13       0.1504
     12  C         -7.3150   -5.1050    2.5940 C.2    13  PRO13       0.2576
     13  O         -8.4390   -4.8000    2.9910 O.2    13  PRO13      -0.2718
     14  CB        -7.6100   -6.5020    0.5310 C.3    13  PRO13       0.0282
     15  CG        -8.0510   -7.9110    0.3350 C.3    13  PRO13       0.0208
     16  CD        -8.5260   -8.3900    1.6800 C.3    13  PRO13       0.0893
     17  N         -6.2680   -4.2900    2.6910 N.am   14  MET14      -0.1966
     18  CA        -6.3870   -2.9610    3.2830 C.3    14  MET14       0.1736
     19  C         -7.4740   -2.1500    2.5850 C.2    14  MET14       0.2617
     20  O         -8.4140   -1.6750    3.2220 O.2    14  MET14      -0.2715
     21  CB        -5.0490   -2.2230    3.2000 C.3    14  MET14       0.0427
     22  CG        -4.2140   -2.3350    4.4670 C.3    14  MET14       0.0599
     23  SD        -2.6930   -3.2730    4.2220 S.3    14  MET14      -0.1393
     24  CE        -1.7460   -2.1300    3.2190 C.3    14  MET14       0.0692
     25  N         -7.3380   -1.9990    1.2720 N.am   15  GLY15      -0.1940
     26  CA        -8.3160   -1.2460    0.5080 C.3    15  GLY15       0.2014
     27  C         -7.6750   -0.3510   -0.5340 C.2    15  GLY15       0.2639
     28  O         -8.1220    0.7750   -0.7550 O.2    15  GLY15      -0.2714
     29  N         -6.6270   -0.8520   -1.1790 N.am   16  ILE16      -0.1963
     30  CA        -5.9230   -0.0940   -2.2050 C.3    16  ILE16       0.1727
     31  C         -5.1160   -1.0200   -3.1070 C.2    16  ILE16       0.2616
     32  O         -4.7820   -2.1400   -2.7220 O.2    16  ILE16      -0.2715
     33  CB        -4.9760    0.9520   -1.5860 C.3    16  ILE16       0.0290
     34  CG1       -4.1270    0.3160   -0.4840 C.3    16  ILE16       0.0022
     35  CG2       -5.7690    2.1290   -1.0390 C.3    16  ILE16       0.0023
     36  CD1       -3.0020    1.2060    0.0000 C.3    16  ILE16       0.0001
     37  N         -4.8010   -0.5430   -4.3050 N.am   17  CYS17      -0.1954
     38  CA        -4.0250   -1.3270   -5.2570 C.3    17  CYS17       0.1843
     39  C         -2.7930   -0.5460   -5.6900 C.2    17  CYS17       0.2625
     40  O         -2.9060    0.5780   -6.1630 O.2    17  CYS17      -0.2714
     41  CB        -4.8840   -1.6910   -6.4730 C.3    17  CYS17       0.0997
     42  SG        -4.9040   -3.4720   -6.8650 S.3    17  CYS17      -0.0797
     43  N         -1.6200   -1.1450   -5.5100 N.am   18  LEU18      -0.1963
     44  CA        -0.3610   -0.5010   -5.8670 C.3    18  LEU18       0.1728
     45  C          0.4890   -1.4070   -6.7530 C.2    18  LEU18       0.2616
     46  O          0.3120   -2.6230   -6.7640 O.2    18  LEU18      -0.2715
     47  CB         0.4240   -0.1320   -4.6050 C.3    18  LEU18       0.0311
     48  CG        -0.4290    0.2960   -3.4080 C.3    18  LEU18       0.0022
     49  CD1       -0.7650   -0.9040   -2.5350 C.3    18  LEU18       0.0001
     50  CD2        0.2900    1.3640   -2.5970 C.3    18  LEU18       0.0001
     51  N          1.4160   -0.8030   -7.4910 N.am   19  LYS19      -0.1963
     52  CA         2.2960   -1.5550   -8.3790 C.3    19  LYS19       0.1728
     53  C          3.7270   -1.0300   -8.3050 C.2    19  LYS19       0.2616
     54  O          3.9740    0.0500   -7.7640 O.2    19  LYS19      -0.2715
     55  CB         1.7870   -1.4740   -9.8190 C.3    19  LYS19       0.0311
     56  CG         1.8440   -0.0730  -10.4080 C.3    19  LYS19       0.0038
     57  CD         0.8260    0.1030  -11.5260 C.3    19  LYS19       0.0206
     58  CE         1.4350    0.8070  -12.7280 C.3    19  LYS19       0.1093
     59  NZ         0.6970    0.4990  -13.9850 N.3    19  LYS19      -0.1314
     60  N          4.6650   -1.8020   -8.8550 N.am   20  LEU20      -0.1977
     61  CA         6.0710   -1.4180   -8.8580 C.3    20  LEU20       0.1596
     62  C          6.5150   -0.9980  -10.2560 C.2    20  LEU20       0.2287
     63  O          6.7420   -1.8380  -11.1260 O.2    20  LEU20      -0.2864
     64  CB         6.9500   -2.5720   -8.3580 C.3    20  LEU20       0.0297
     65  CG         6.3100   -3.5000   -7.3170 C.3    20  LEU20       0.0022
     66  CD1        5.5890   -2.7030   -6.2360 C.3    20  LEU20       0.0001
     67  CD2        5.3590   -4.4800   -7.9880 C.3    20  LEU20       0.0001
     68  N          8.9620    0.7940  -13.2600 N.3    22  GLU22      -0.1245
     69  CA        10.3160    0.4530  -13.6860 C.3    22  GLU22       0.1567
     70  C         11.3390    0.8430  -12.6210 C.2    22  GLU22       0.2260
     71  O         12.3850    0.2060  -12.4860 O.2    22  GLU22      -0.2867
     72  CB        10.6480    1.1490  -15.0070 C.3    22  GLU22       0.0388
     73  CG        10.2850    0.3300  -16.2340 C.3    22  GLU22       0.1160
     74  CD        11.3910    0.3090  -17.2710 C.2    22  GLU22       0.3649
     75  OE1       12.1310    1.3100  -17.3700 O.co2  22  GLU22      -0.2457
     76  OE2       11.5180   -0.7090  -17.9840 O.co2  22  GLU22      -0.2457
     77  N          6.1990    0.9900   -4.6050 N.3    26  CYS26      -0.1235
     78  CA         4.7810    0.7120   -4.4170 C.3    26  CYS26       0.1677
     79  C          3.9590    1.9960   -4.3940 C.2    26  CYS26       0.2270
     80  O          4.0470    2.7890   -3.4570 O.2    26  CYS26      -0.2867
     81  CB         4.5650   -0.0700   -3.1200 C.3    26  CYS26       0.0956
     82  SG         3.4300   -1.4680   -3.2820 S.3    26  CYS26      -0.0801
     83  N         -2.0170    2.3540   -7.5950 N.3    29  ALA29      -0.1231
     84  CA        -2.4080    2.5100   -8.9840 C.3    29  ALA29       0.1694
     85  C         -3.8930    2.8420   -9.1000 C.2    29  ALA29       0.2591
     86  O         -4.3370    3.4080  -10.0990 O.2    29  ALA29      -0.2718
     87  CB        -2.0750    1.2410   -9.7500 C.3    29  ALA29       0.0304
     88  N         -4.6580    2.4880   -8.0680 N.am   30  ARG30      -0.1980
     89  CA        -6.0910    2.7520   -8.0510 C.3    30  ARG30       0.1597
     90  C         -6.6940    2.3910   -6.6960 C.2    30  ARG30       0.2287
     91  O         -6.3850    1.3430   -6.1290 O.2    30  ARG30      -0.2864
     92  CB        -6.7900    1.9620   -9.1580 C.3    30  ARG30       0.0334
     93  CG        -8.0210    2.6570   -9.7170 C.3    30  ARG30       0.0492
     94  CD        -9.2990    1.9370   -9.3200 C.3    30  ARG30       0.2205
     95  NE        -9.3750    0.5960   -9.8960 N.pl3  30  ARG30      -0.0865
     96  CZ        -9.6480    0.3540  -11.1760 C.cat  30  ARG30       0.5346
     97  NH1       -9.8710    1.3580  -12.0150 N.pl3  30  ARG30       0.1354
     98  NH2       -9.6970   -0.8950  -11.6180 N.pl3  30  ARG30       0.1354
     99  N         -9.6090    1.1410   -4.2670 N.3    32  LEU32      -0.1245
    100  CA       -10.7720    0.2640   -4.3520 C.3    32  LEU32       0.1561
    101  C        -11.9030    0.7680   -3.4620 C.2    32  LEU32       0.2260
    102  O        -11.6620    1.3560   -2.4080 O.2    32  LEU32      -0.2867
    103  CB       -10.3960   -1.1660   -3.9550 C.3    32  LEU32       0.0270
    104  CG        -9.2770   -1.7980   -4.7840 C.3    32  LEU32       0.0019
    105  CD1       -9.5500   -1.6350   -6.2710 C.3    32  LEU32       0.0001
    106  CD2       -7.9360   -1.1840   -4.4140 C.3    32  LEU32       0.0001
    107  N          6.6770    0.2000    2.8730 N.3    52  ILE52      -0.1245
    108  CA         5.4650   -0.5190    3.2460 C.3    52  ILE52       0.1561
    109  C          5.7110   -1.4100    4.4570 C.2    52  ILE52       0.2260
    110  O          6.2440   -2.5120    4.3300 O.2    52  ILE52      -0.2867
    111  CB         4.9380   -1.3860    2.0850 C.3    52  ILE52       0.0252
    112  CG1        4.9140   -0.5800    0.7850 C.3    52  ILE52       0.0019
    113  CG2        3.5500   -1.9170    2.4120 C.3    52  ILE52       0.0019
    114  CD1        6.2760   -0.4340    0.1420 C.3    52  ILE52       0.0001
    115  N          9.4080  -10.1610   -6.5390 N.3    61  SER61      -0.1202
    116  CA         8.1050  -10.7070   -6.1830 C.3    61  SER61       0.2020
    117  C          7.4750   -9.9150   -5.0410 C.2    61  SER61       0.2619
    118  O          8.1310   -9.6110   -4.0450 O.2    61  SER61      -0.2717
    119  CB         8.2360  -12.1800   -5.7870 C.3    61  SER61       0.2103
    120  OG         7.9650  -13.0310   -6.8880 O.3    61  SER61      -0.2182
    121  N          6.1970   -9.5900   -5.1960 N.am   62  VAL62      -0.1965
    122  CA         5.4630   -8.8370   -4.1820 C.3    62  VAL62       0.1727
    123  C          4.8160   -9.7680   -3.1680 C.2    62  VAL62       0.2616
    124  O          4.4450   -9.3460   -2.0720 O.2    62  VAL62      -0.2715
    125  CB         4.3680   -7.9510   -4.8080 C.3    62  VAL62       0.0290
    126  CG1        4.1850   -6.6750   -3.9990 C.3    62  VAL62       0.0023
    127  CG2        4.7040   -7.6310   -6.2520 C.3    62  VAL62       0.0023
    128  N          4.6730  -11.0360   -3.5430 N.am   63  ASP63      -0.1971
    129  CA         4.0620  -12.0330   -2.6730 C.3    63  ASP63       0.1709
    130  C          4.5910  -11.9280   -1.2450 C.2    63  ASP63       0.2293
    131  O          3.9050  -12.2960   -0.2930 O.2    63  ASP63      -0.2864
    132  CB         4.3110  -13.4390   -3.2230 C.3    63  ASP63       0.1436
    133  CG         5.7850  -13.7940   -3.2560 C.2    63  ASP63       0.3671
    134  OD1        6.4400  -13.7180   -2.1950 O.co2  63  ASP63      -0.2456
    135  OD2        6.2850  -14.1500   -4.3440 O.co2  63  ASP63      -0.2456
    136  N          5.2890   -9.1250    0.3920 N.3    65  LEU65      -0.1231
    137  CA         4.5510   -8.0590    1.0620 C.3    65  LEU65       0.1693
    138  C          3.0680   -8.4050    1.1270 C.2    65  LEU65       0.2591
    139  O          2.4040   -8.1610    2.1360 O.2    65  LEU65      -0.2718
    140  CB         4.7480   -6.7260    0.3320 C.3    65  LEU65       0.0284
    141  CG         6.1990   -6.2570    0.2020 C.3    65  LEU65       0.0019
    142  CD1        6.9160   -6.3470    1.5400 C.3    65  LEU65       0.0001
    143  CD2        6.9320   -7.0690   -0.8550 C.3    65  LEU65       0.0001
    144  N          2.5590   -8.9830    0.0440 N.am   66  GLN66      -0.1979
    145  CA         1.1570   -9.3790   -0.0330 C.3    66  GLN66       0.1601
    146  C          0.8040  -10.3330    1.1050 C.2    66  GLN66       0.2287
    147  O         -0.2320  -10.1900    1.7530 O.2    66  GLN66      -0.2864
    148  CB         0.8720  -10.0480   -1.3800 C.3    66  GLN66       0.0394
    149  CG        -0.4940   -9.7120   -1.9520 C.3    66  GLN66       0.0908
    150  CD        -0.9590  -10.7220   -2.9830 C.2    66  GLN66       0.2608
    151  OE1       -0.1510  -11.3160   -3.6960 O.2    66  GLN66      -0.2717
    152  NE2       -2.2690  -10.9220   -3.0670 N.am   66  GLN66      -0.0878
    153  N          1.3360   -8.5820    4.6040 N.3    69  MET69      -0.1230
    154  CA         0.2440   -7.6460    4.8390 C.3    69  MET69       0.1702
    155  C         -1.0400   -8.3840    5.2050 C.2    69  MET69       0.2592
    156  O         -1.8510   -7.8890    5.9870 O.2    69  MET69      -0.2718
    157  CB         0.0110   -6.7800    3.5990 C.3    69  MET69       0.0401
    158  CG         1.0720   -5.7110    3.3950 C.3    69  MET69       0.0596
    159  SD         0.7860   -4.2460    4.4070 S.3    69  MET69      -0.1393
    160  CE         1.9350   -4.5330    5.7510 C.3    69  MET69       0.0692
    161  N         -1.2170   -9.5700    4.6350 N.am   70  LYS70      -0.1980
    162  CA        -2.4030  -10.3770    4.9020 C.3    70  LYS70       0.1596
    163  C         -2.2620  -11.1320    6.2220 C.2    70  LYS70       0.2287
    164  O         -3.2570  -11.4660    6.8650 O.2    70  LYS70      -0.2864
    165  CB        -2.6420  -11.3620    3.7550 C.3    70  LYS70       0.0298
    166  CG        -3.8660  -11.0320    2.9150 C.3    70  LYS70       0.0038
    167  CD        -3.5220  -10.0850    1.7750 C.3    70  LYS70       0.0206
    168  CE        -3.9460  -10.6520    0.4290 C.3    70  LYS70       0.1093
    169  NZ        -3.0290  -11.7300   -0.0340 N.3    70  LYS70      -0.1314
@<TRIPOS>BOND
     1    76    74   ar
     2    75    74   ar
     3    74    73    1
     4    73    72    1
     5    72    69    1
     6    59    58    1
     7    69    68    1
     8    69    70    1
     9    58    57    1
    10    70    71    2
    11    97    96    1
    12    98    96    1
    13    57    56    1
    14    96    95    2
    15    63    62    2
    16    56    55    1
    17    62    61    1
    18    86    85    2
    19    95    94    1
    20    55    52    1
    21    87    84    1
    22    93    94    1
    23    93    92    1
    24    92    89    1
    25    85    84    1
    26    85    88   am
    27    84    83    1
    28    61    60    1
    29    61    64    1
    30    60    53   am
    31    52    53    1
    32    52    51    1
    33    64    65    1
    34    53    54    2
    35    88    89    1
    36    89    90    1
    37    67    65    1
    38    51    45   am
    39    65    66    1
    40   120   119    1
    41    42    41    1
    42    46    45    2
    43    45    44    1
    44    90    91    2
    45   115   116    1
    46    41    38    1
    47   105   104    1
    48   127   125    1
    49   116   119    1
    50   116   117    1
    51    40    39    2
    52    44    43    1
    53    44    47    1
    54    39    43   am
    55    39    38    1
    56    38    37    1
    57   121   117   am
    58   121   122    1
    59   117   118    2
    60   125   122    1
    61   125   126    1
    62   104   106    1
    63   104   103    1
    64    77    78    1
    65    47    48    1
    66    78    79    1
    67    78    81    1
    68    79    80    2
    69   100    99    1
    70   100   103    1
    71   100   101    1
    72   135   133   ar
    73    37    31   am
    74   122   123    1
    75   151   150    2
    76   128   123   am
    77   128   129    1
    78   101   102    2
    79    48    50    1
    80    48    49    1
    81    82    81    1
    82   133   132    1
    83   133   134   ar
    84   132   129    1
    85   123   124    2
    86    31    32    2
    87    31    30    1
    88   152   150   am
    89   150   149    1
    90   129   130    1
    91    30    33    1
    92    30    29    1
    93   149   148    1
    94    33    35    1
    95    33    34    1
    96   148   145    1
    97   130   131    2
    98    29    27   am
    99   143   141    1
   100    28    27    2
   101    27    26    1
   102    34    36    1
   103   169   168    1
   104   145   144    1
   105   145   146    1
   106   144   138   am
   107   114   112    1
   108   141   140    1
   109   141   142    1
   110   140   137    1
   111    15    14    1
   112    15    16    1
   113   136   137    1
   114   168   167    1
   115    26    25    1
   116    14    11    1
   117   112   111    1
   118   137   138    1
   119   146   147    2
   120   138   139    2
   121    25    19   am
   122    16    10    1
   123   167   166    1
   124    11    12    1
   125    11    10    1
   126   111   113    1
   127   111   108    1
   128    19    20    2
   129    19    18    1
   130    12    17   am
   131    12    13    2
   132    17    18    1
   133   107   108    1
   134   166   165    1
   135    21    18    1
   136    21    22    1
   137    24    23    1
   138   108   109    1
   139   158   157    1
   140   158   159    1
   141   157   154    1
   142   165   162    1
   143    23    22    1
   144   110   109    2
   145   159   160    1
   146   153   154    1
   147   161   162    1
   148   161   155   am
   149   154   155    1
   150   162   163    1
   151   155   156    2
   152     9     8    1
   153   163   164    2
   154     8     7    1
   155     7     6    1
   156     6     5    1
   157     5     2    1
   158     2     1    1
   159     2     3    1
   160     3     4    2
