@<TRIPOS>MOLECULE
tmp/2ek9A00.pdb
 160 152 0 0 0
SMALL
GASTEIGER

@<TRIPOS>ATOM
      1  N         15.2330   24.6220    8.7880 N.3   224  HIS224     -0.1241
      2  CA        15.2840   25.8680    9.5510 C.3   224  HIS224      0.1621
      3  C         16.6860   26.4460    9.4630 C.2   224  HIS224      0.2264
      4  O         17.6700   25.7040    9.4780 O.2   224  HIS224     -0.2867
      5  CB        14.8350   25.6550   11.0110 C.3   224  HIS224      0.0745
      6  CG        15.7770   24.8400   11.8480 C.ar  224  HIS224      0.0817
      7  ND1       16.7860   25.4060   12.5980 N.ar  224  HIS224     -0.2268
      8  CD2       15.8200   23.5110   12.1040 C.ar  224  HIS224      0.1154
      9  CE1       17.4060   24.4620   13.2830 C.ar  224  HIS224      0.1986
     10  NE2       16.8390   23.3030   13.0020 N.ar  224  HIS224     -0.2212
     11  N         22.8720   21.1870   12.2890 N.3   236  ASP236     -0.1239
     12  CA        21.5720   21.6090   12.8140 C.3   236  ASP236      0.1674
     13  C         21.4590   23.1360   12.7330 C.2   236  ASP236      0.2266
     14  O         21.8420   23.8390   13.6710 O.2   236  ASP236     -0.2867
     15  CB        21.3990   21.1430   14.2720 C.3   236  ASP236      0.1410
     16  CG        19.9780   21.3660   14.7990 C.2   236  ASP236      0.3668
     17  OD1       19.0640   21.5260   13.9690 O.co2 236  ASP236     -0.2456
     18  OD2       19.7660   21.3650   16.0330 O.co2 236  ASP236     -0.2456
     19  N         13.3020   28.2830   14.7540 N.3   268  GLU268     -0.1231
     20  CA        12.8290   26.9210   14.9840 C.3   268  GLU268      0.1699
     21  C         13.2390   26.4570   16.3800 C.2   268  GLU268      0.2592
     22  O         12.4680   25.7970   17.0770 O.2   268  GLU268     -0.2718
     23  CB        13.4250   25.9770   13.9330 C.3   268  GLU268      0.0402
     24  CG        12.9590   24.5200   13.9980 C.3   268  GLU268      0.1161
     25  CD        13.7630   23.6600   14.9670 C.2   268  GLU268      0.3649
     26  OE1       14.8370   24.1000   15.4320 O.co2 268  GLU268     -0.2457
     27  OE2       13.3190   22.5290   15.2530 O.co2 268  GLU268     -0.2457
     28  N         14.4510   26.8250   16.7890 N.am  269  GLU269     -0.1979
     29  CA        14.9800   26.4190   18.0910 C.3   269  GLU269      0.1602
     30  C         14.2110   27.0430   19.2510 C.2   269  GLU269      0.2287
     31  O         14.2530   26.5360   20.3740 O.2   269  GLU269     -0.2864
     32  CB        16.4660   26.7910   18.1920 C.3   269  GLU269      0.0415
     33  CG        17.3410   26.2150   17.0710 C.3   269  GLU269      0.1163
     34  CD        17.6260   24.7270   17.2190 C.2   269  GLU269      0.3649
     35  OE1       17.0470   24.0870   18.1190 O.co2 269  GLU269     -0.2457
     36  OE2       18.4330   24.1970   16.4210 O.co2 269  GLU269     -0.2457
     37  N         11.0390   27.1700   19.4270 N.3   271  GLY271     -0.1210
     38  CA         9.7340   26.5500   19.5450 C.3   271  GLY271      0.1956
     39  C          8.9440   26.4830   18.2500 C.2   271  GLY271      0.2611
     40  O          7.7160   26.5830   18.2700 O.2   271  GLY271     -0.2717
     41  N          9.6420   26.3180   17.1280 N.am  272  LEU272     -0.1979
     42  CA         8.9970   26.2030   15.8150 C.3   272  LEU272      0.1596
     43  C          8.1570   27.4360   15.5110 C.2   272  LEU272      0.2287
     44  O          7.1220   27.3390   14.8560 O.2   272  LEU272     -0.2864
     45  CB         8.0880   24.9660   15.7870 C.3   272  LEU272      0.0297
     46  CG         8.5780   23.6980   16.4990 C.3   272  LEU272      0.0022
     47  CD1        7.5350   22.5910   16.3510 C.3   272  LEU272      0.0001
     48  CD2        9.9110   23.2560   15.9180 C.3   272  LEU272      0.0001
     49  N         16.0740   18.1340    8.6220 N.3   297  ASP297     -0.1225
     50  CA        16.7390   18.6570    9.8130 C.3   297  ASP297      0.1805
     51  C         17.7950   17.6540   10.2820 C.2   297  ASP297      0.2597
     52  O         17.4570   16.5440   10.6920 O.2   297  ASP297     -0.2718
     53  CB        15.6980   18.8840   10.9160 C.3   297  ASP297      0.1424
     54  CG        16.1700   19.8560   11.9870 C.2   297  ASP297      0.3668
     55  OD1       17.3760   20.1870   12.0150 O.co2 297  ASP297     -0.2456
     56  OD2       15.3280   20.2870   12.8090 O.co2 297  ASP297     -0.2456
     57  N         19.0630   18.0650   10.2190 N.am  298  MET298     -0.1979
     58  CA        20.2110   17.2440   10.6100 C.3   298  MET298      0.1605
     59  C         20.3470   16.0820    9.6440 C.2   298  MET298      0.2287
     60  O         20.0300   14.9340    9.9570 O.2   298  MET298     -0.2864
     61  CB        20.0620   16.7800   12.0670 C.3   298  MET298      0.0413
     62  CG        20.3010   17.9370   13.0390 C.3   298  MET298      0.0598
     63  SD        19.8870   17.6700   14.7700 S.3   298  MET298     -0.1393
     64  CE        21.1530   16.4460   15.2180 C.3   298  MET298      0.0692
     65  N         10.5100   10.5430   10.5190 N.3   310  TYR310     -0.1241
     66  CA         9.6950   10.6790   11.7240 C.3   310  TYR310      0.1605
     67  C          8.3870   11.4290   11.4780 C.2   310  TYR310      0.2264
     68  O          8.3760   12.4660   10.8210 O.2   310  TYR310     -0.2867
     69  CB        10.4690   11.4180   12.8250 C.3   310  TYR310      0.0534
     70  CG        11.5870   10.6310   13.4790 C.ar  310  TYR310     -0.0201
     71  CD1       11.3710    9.3370   13.9500 C.ar  310  TYR310     -0.0009
     72  CD2       12.8470   11.2030   13.6750 C.ar  310  TYR310     -0.0009
     73  CE1       12.3760    8.6320   14.6020 C.ar  310  TYR310      0.0417
     74  CE2       13.8650   10.5050   14.3310 C.ar  310  TYR310      0.0417
     75  CZ        13.6200    9.2220   14.7920 C.ar  310  TYR310      0.1957
     76  OH        14.6100    8.5310   15.4510 O.3   310  TYR310     -0.2866
     77  N          8.2020   10.9930   16.1550 N.3   339  GLU339     -0.1231
     78  CA         8.9720   12.0730   16.7460 C.3   339  GLU339      0.1699
     79  C          8.5560   13.4250   16.1930 C.2   339  GLU339      0.2593
     80  O          8.1960   13.5490   15.0220 O.2   339  GLU339     -0.2718
     81  CB        10.4700   11.8780   16.5030 C.3   339  GLU339      0.0402
     82  CG        11.3190   12.9390   17.1790 C.3   339  GLU339      0.1161
     83  CD        11.1480   12.9400   18.6890 C.2   339  GLU339      0.3649
     84  OE1       11.8670   12.1780   19.3690 O.co2 339  GLU339     -0.2457
     85  OE2       10.2860   13.6940   19.1930 O.co2 339  GLU339     -0.2457
     86  N          8.5970   14.4310   17.0590 N.am  340  GLY340     -0.1942
     87  CA         8.2670   15.7840   16.6550 C.3   340  GLY340      0.2014
     88  C          9.5620   16.5610   16.7780 C.2   340  GLY340      0.2639
     89  O         10.5720   16.1700   16.1990 O.2   340  GLY340     -0.2714
     90  N          9.5360   17.6530   17.5300 N.am  341  ARG341     -0.1963
     91  CA        10.7210   18.4680   17.7630 C.3   341  ARG341      0.1729
     92  C         11.2560   19.2230   16.5530 C.2   341  ARG341      0.2616
     93  O         12.3790   19.7200   16.5970 O.2   341  ARG341     -0.2715
     94  CB        11.8410   17.6030   18.3620 C.3   341  ARG341      0.0348
     95  CG        11.4810   16.9630   19.7070 C.3   341  ARG341      0.0492
     96  CD        12.4910   15.8840   20.1140 C.3   341  ARG341      0.2205
     97  NE        13.8430   16.4090   20.2900 N.pl3 341  ARG341     -0.0865
     98  CZ        14.9070   15.6580   20.5640 C.cat 341  ARG341      0.5346
     99  NH1       14.7800   14.3440   20.6930 N.pl3 341  ARG341      0.1354
    100  NH2       16.0980   16.2190   20.7150 N.pl3 341  ARG341      0.1354
    101  N         10.4800   19.3020   15.4710 N.am  342  SER342     -0.1950
    102  CA        10.9310   20.0520   14.2960 C.3   342  SER342      0.1924
    103  C          9.7480   20.6560   13.5340 C.2   342  SER342      0.2314
    104  O          8.5950   20.3860   13.8550 O.2   342  SER342     -0.2863
    105  CB        11.7790   19.1750   13.3670 C.3   342  SER342      0.2116
    106  OG        12.5530   19.9870   12.4880 O.3   342  SER342     -0.2180
    107  N          6.0150   19.4470   12.6080 N.3   345  GLU345     -0.1245
    108  CA         4.9270   19.4520   13.5760 C.3   345  GLU345      0.1567
    109  C          3.9130   20.5510   13.2450 C.2   345  GLU345      0.2260
    110  O          2.7090   20.3700   13.4180 O.2   345  GLU345     -0.2867
    111  CB         5.4920   19.6710   14.9810 C.3   345  GLU345      0.0388
    112  CG         4.4980   19.4400   16.0950 C.3   345  GLU345      0.1160
    113  CD         5.1610   19.4340   17.4540 C.2   345  GLU345      0.3649
    114  OE1        6.1920   18.7450   17.6070 O.co2 345  GLU345     -0.2457
    115  OE2        4.6520   20.1080   18.3710 O.co2 345  GLU345     -0.2457
    116  N          9.7000   14.2160    9.0810 N.3   356  LEU356     -0.1245
    117  CA        11.0350   14.7440    9.3010 C.3   356  LEU356      0.1561
    118  C         12.0360   13.7070    8.8080 C.2   356  LEU356      0.2260
    119  O         11.9190   12.5220    9.1270 O.2   356  LEU356     -0.2867
    120  CB        11.2640   14.9920   10.7920 C.3   356  LEU356      0.0270
    121  CG        12.7240   15.0200   11.2640 C.3   356  LEU356      0.0019
    122  CD1       13.4730   16.1740   10.6010 C.3   356  LEU356      0.0001
    123  CD2       12.7590   15.1500   12.7900 C.3   356  LEU356      0.0001
    124  N         15.8940   12.7410    8.9600 N.3   358  ILE358     -0.1245
    125  CA        17.0540   13.0080    9.8070 C.3   358  ILE358      0.1561
    126  C         17.8920   11.7450   10.0180 C.2   358  ILE358      0.2260
    127  O         17.3830   10.6360    9.8880 O.2   358  ILE358     -0.2867
    128  CB        16.5570   13.5140   11.1840 C.3   358  ILE358      0.0252
    129  CG1       17.7200   13.7140   12.1510 C.3   358  ILE358      0.0019
    130  CG2       15.5600   12.5110   11.7620 C.3   358  ILE358      0.0019
    131  CD1       17.3070   14.3860   13.4380 C.3   358  ILE358      0.0001
    132  N         21.2850   10.5850   16.6080 N.3   362  VAL362     -0.1245
    133  CA        22.0220   11.8020   16.2860 C.3   362  VAL362      0.1561
    134  C         23.4390   11.8240   16.8480 C.2   362  VAL362      0.2260
    135  O         23.7800   11.0630   17.7580 O.2   362  VAL362     -0.2867
    136  CB        21.2720   13.0660   16.7750 C.3   362  VAL362      0.0252
    137  CG1       19.9080   13.1470   16.1070 C.3   362  VAL362      0.0019
    138  CG2       21.1260   13.0430   18.2890 C.3   362  VAL362      0.0019
    139  N         25.4050   17.6400   18.4910 N.3   366  TYR366     -0.1227
    140  CA        24.1050   18.2930   18.4600 C.3   366  TYR366      0.1736
    141  C         23.9890   19.4090   19.5130 C.2   366  TYR366      0.2595
    142  O         24.1270   19.1600   20.7090 O.2   366  TYR366     -0.2718
    143  CB        23.0480   17.2060   18.6790 C.3   366  TYR366      0.0548
    144  CG        21.6660   17.6790   19.0240 C.ar  366  TYR366     -0.0200
    145  CD1       20.9520   18.5020   18.1610 C.ar  366  TYR366     -0.0009
    146  CD2       21.0530   17.2690   20.2080 C.ar  366  TYR366     -0.0009
    147  CE1       19.6610   18.9050   18.4660 C.ar  366  TYR366      0.0417
    148  CE2       19.7640   17.6660   20.5230 C.ar  366  TYR366      0.0417
    149  CZ        19.0740   18.4850   19.6480 C.ar  366  TYR366      0.1957
    150  OH        17.7950   18.8870   19.9550 O.3   366  TYR366     -0.2866
    151  N         23.7410   20.6380   19.0570 N.am  367  HIS367     -0.1975
    152  CA        23.5980   21.8030   19.9380 C.3   367  HIS367      0.1656
    153  C         24.8450   22.1950   20.7340 C.2   367  HIS367      0.2291
    154  O         24.7340   22.7600   21.8220 O.2   367  HIS367     -0.2864
    155  CB        22.4430   21.6000   20.9240 C.3   367  HIS367      0.0771
    156  CG        21.0850   21.7740   20.3160 C.ar  367  HIS367      0.0820
    157  ND1       19.9280   21.7240   21.0630 N.ar  367  HIS367     -0.2267
    158  CD2       20.6980   21.9890   19.0370 C.ar  367  HIS367      0.1154
    159  CE1       18.8860   21.9000   20.2690 C.ar  367  HIS367      0.1986
    160  NE2       19.3260   22.0620   19.0350 N.ar  367  HIS367     -0.2212
@<TRIPOS>BOND
     1    49    50    1
     2     1     2    1
     3   118   119    2
     4   118   117    1
     5   124   125    1
     6   116   117    1
     7   117   120    1
     8     3     4    2
     9     3     2    1
    10     2     5    1
    11    59    60    2
    12    59    58    1
    13   125   126    1
    14   125   128    1
    15    50    51    1
    16    50    53    1
    17   127   126    2
    18    57    51   am
    19    57    58    1
    20    51    52    2
    21    65    66    1
    22   122   121    1
    23    58    61    1
    24   120   121    1
    25    68    67    2
    26    53    54    1
    27     5     6    1
    28   128   130    1
    29   128   129    1
    30   121   123    1
    31    67    66    1
    32    66    69    1
    33     6     8   ar
    34     6     7   ar
    35    54    55   ar
    36    54    56   ar
    37    61    62    1
    38     8    10   ar
    39   129   131    1
    40    11    12    1
    41   106   105    1
    42     7     9   ar
    43   107   108    1
    44    13    12    1
    45    13    14    2
    46    12    15    1
    47    69    70    1
    48    10     9   ar
    49    62    63    1
    50   109   110    2
    51   109   108    1
    52   105   102    1
    53    70    72   ar
    54    70    71   ar
    55   103   104    2
    56   103   102    1
    57   108   111    1
    58    72    74   ar
    59    23    24    1
    60    23    20    1
    61    71    73   ar
    62    17    16   ar
    63    24    25    1
    64    15    16    1
    65   102   101    1
    66    74    75   ar
    67    73    75   ar
    68    19    20    1
    69    63    64    1
    70    75    76    1
    71    16    18   ar
    72    44    43    2
    73    25    27   ar
    74    25    26   ar
    75   111   112    1
    76    20    21    1
    77    80    79    2
    78   101    92   am
    79    43    42    1
    80    45    42    1
    81    45    46    1
    82    42    41    1
    83    48    46    1
    84   112   113    1
    85   137   136    1
    86    77    78    1
    87    79    78    1
    88    79    86   am
    89    89    88    2
    90   133   132    1
    91   133   136    1
    92   133   134    1
    93    47    46    1
    94    21    28   am
    95    21    22    2
    96    36    34   ar
    97    81    78    1
    98    81    82    1
    99    92    93    2
   100    92    91    1
   101    87    88    1
   102    87    86    1
   103   136   138    1
   104    88    90   am
   105    28    29    1
   106   134   135    2
   107    33    34    1
   108    33    32    1
   109    41    39   am
   110    82    83    1
   111    34    35   ar
   112   113   114   ar
   113   113   115   ar
   114    90    91    1
   115    91    94    1
   116    29    32    1
   117    29    30    1
   118   145   147   ar
   119   145   144   ar
   120    39    40    2
   121    39    38    1
   122    94    95    1
   123   140   139    1
   124   140   143    1
   125   140   141    1
   126   147   149   ar
   127   143   144    1
   128    83    85   ar
   129    83    84   ar
   130   144   146   ar
   131   160   158   ar
   132   160   159   ar
   133   158   156   ar
   134   151   141   am
   135   151   152    1
   136    30    31    2
   137    37    38    1
   138   141   142    2
   139   149   150    1
   140   149   148   ar
   141    95    96    1
   142   152   153    1
   143   152   155    1
   144    96    97    1
   145   146   148   ar
   146   159   157   ar
   147    97    98    2
   148   156   155    1
   149   156   157   ar
   150    98    99    1
   151    98   100    1
   152   153   154    2
