@<TRIPOS>MOLECULE
tmp/2el9A00.pdb
 236 227 0 0 0
SMALL
GASTEIGER

@<TRIPOS>ATOM
      1  N          3.4520   64.7680  158.4260 N.3    81  GLU81      -0.1231
      2  CA         3.9560   65.4210  159.6360 C.3    81  GLU81       0.1699
      3  C          3.1400   64.8780  160.8180 C.2    81  GLU81       0.2593
      4  O          2.1400   64.1670  160.6150 O.2    81  GLU81      -0.2718
      5  CB         3.7500   66.9280  159.5450 C.3    81  GLU81       0.0402
      6  CG         2.2880   67.3010  159.4120 C.3    81  GLU81       0.1161
      7  CD         1.8170   68.1800  160.5310 C.2    81  GLU81       0.3649
      8  OE1        2.4580   69.2290  160.7220 O.co2  81  GLU81      -0.2457
      9  OE2        0.8140   67.8330  161.2030 O.co2  81  GLU81      -0.2457
     10  N          3.5340   65.2310  162.0430 N.am   82  GLY82      -0.1942
     11  CA         2.8120   64.7310  163.2060 C.3    82  GLY82       0.2014
     12  C          2.0930   65.7260  164.1100 C.2    82  GLY82       0.2639
     13  O          1.3760   65.3170  165.0240 O.2    82  GLY82      -0.2714
     14  N          2.2760   67.0220  163.8740 N.am   83  THR83      -0.1950
     15  CA         1.6220   68.0420  164.6920 C.3    83  THR83       0.1897
     16  C          0.1130   67.8910  164.6440 C.2    83  THR83       0.2313
     17  O         -0.5660   67.9930  165.6740 O.2    83  THR83      -0.2863
     18  CB         1.9360   69.4580  164.2110 C.3    83  THR83       0.1794
     19  OG1        3.3080   69.5420  163.7940 O.3    83  THR83      -0.2208
     20  CG2        1.6830   70.4450  165.3370 C.3    83  THR83       0.0378
     21  N          8.0180   63.1280  169.9310 N.3   105  TYR105     -0.1241
     22  CA         7.7360   61.9360  169.1520 C.3   105  TYR105      0.1605
     23  C          8.7880   61.7430  168.0730 C.2   105  TYR105      0.2264
     24  O          9.4590   62.6940  167.6310 O.2   105  TYR105     -0.2867
     25  CB         6.3370   62.0370  168.5170 C.3   105  TYR105      0.0534
     26  CG         6.0910   63.2700  167.6350 C.ar  105  TYR105     -0.0201
     27  CD1        6.8160   63.4770  166.4490 C.ar  105  TYR105     -0.0009
     28  CD2        5.1410   64.2380  167.9960 C.ar  105  TYR105     -0.0009
     29  CE1        6.6010   64.6160  165.6500 C.ar  105  TYR105      0.0417
     30  CE2        4.9190   65.3900  167.2020 C.ar  105  TYR105      0.0417
     31  CZ         5.6520   65.5710  166.0380 C.ar  105  TYR105      0.1957
     32  OH         5.4700   66.7160  165.2800 O.3   105  TYR105     -0.2866
     33  N          5.7470   62.3530  152.2810 N.3   111  ARG111     -0.1245
     34  CA         5.3940   63.4500  151.3850 C.3   111  ARG111      0.1563
     35  C          5.9400   63.1360  149.9850 C.2   111  ARG111      0.2260
     36  O          7.0960   62.7060  149.8380 O.2   111  ARG111     -0.2867
     37  CB         6.0020   64.7690  151.8590 C.3   111  ARG111      0.0307
     38  CG         5.6160   65.2250  153.2470 C.3   111  ARG111      0.0489
     39  CD         6.2010   66.5990  153.4700 C.3   111  ARG111      0.2205
     40  NE         6.1720   67.0190  154.8570 N.pl3 111  ARG111     -0.0865
     41  CZ         6.4750   68.2460  155.2610 C.cat 111  ARG111      0.5346
     42  NH1        6.8140   69.1780  154.3790 N.pl3 111  ARG111      0.1354
     43  NH2        6.4670   68.5320  156.5510 N.pl3 111  ARG111      0.1354
     44  N          7.4240   64.6280  147.3450 N.3   113  GLU113     -0.1245
     45  CA         8.1880   65.7340  146.7840 C.3   113  GLU113      0.1567
     46  C          9.1640   65.0090  145.8570 C.2   113  GLU113      0.2260
     47  O          9.0660   63.7870  145.7300 O.2   113  GLU113     -0.2867
     48  CB         8.9290   66.4670  147.9150 C.3   113  GLU113      0.0388
     49  CG         8.1190   66.5460  149.2320 C.3   113  GLU113      0.1160
     50  CD         8.6660   67.5630  150.2360 C.2   113  GLU113      0.3649
     51  OE1        9.9030   67.7260  150.2860 O.co2 113  GLU113     -0.2457
     52  OE2        7.8650   68.1860  150.9840 O.co2 113  GLU113     -0.2457
     53  N         18.9890   66.0460  150.5800 N.3   118  GLY118     -0.1210
     54  CA        18.3950   66.1560  151.8970 C.3   118  GLY118      0.1956
     55  C         16.8920   65.9560  151.8870 C.2   118  GLY118      0.2612
     56  O         16.2170   66.2830  152.8690 O.2   118  GLY118     -0.2717
     57  N         16.3580   65.4440  150.7810 N.am  119  ARG119     -0.1965
     58  CA        14.9170   65.2060  150.6860 C.3   119  ARG119      0.1729
     59  C         14.5960   63.7660  150.2850 C.2   119  ARG119      0.2616
     60  O         15.1410   63.2260  149.3060 O.2   119  ARG119     -0.2715
     61  CB        14.2600   66.1860  149.7120 C.3   119  ARG119      0.0348
     62  CG        13.2320   67.0880  150.3740 C.3   119  ARG119      0.0492
     63  CD        12.3740   67.7920  149.3480 C.3   119  ARG119      0.2205
     64  NE        13.1810   68.5240  148.3770 N.pl3 119  ARG119     -0.0865
     65  CZ        12.7230   68.9970  147.2200 C.cat 119  ARG119      0.5346
     66  NH1       11.4510   68.8170  146.8750 N.pl3 119  ARG119      0.1354
     67  NH2       13.5420   69.6520  146.4080 N.pl3 119  ARG119      0.1354
     68  N         13.6970   63.1600  151.0580 N.am  120  TYR120     -0.1974
     69  CA        13.3060   61.7740  150.8540 C.3   120  TYR120      0.1639
     70  C         11.7770   61.6470  150.9570 C.2   120  TYR120      0.2290
     71  O         11.1580   62.4690  151.6300 O.2   120  TYR120     -0.2864
     72  CB        14.0150   60.9460  151.9210 C.3   120  TYR120      0.0560
     73  CG        15.5290   61.1470  151.9230 C.ar  120  TYR120     -0.0198
     74  CD1       16.3220   60.6870  150.8600 C.ar  120  TYR120     -0.0009
     75  CD2       16.1710   61.7530  153.0110 C.ar  120  TYR120     -0.0009
     76  CE1       17.7300   60.8200  150.8980 C.ar  120  TYR120      0.0417
     77  CE2       17.5630   61.8880  153.0560 C.ar  120  TYR120      0.0417
     78  CZ        18.3460   61.4180  152.0040 C.ar  120  TYR120      0.1957
     79  OH        19.7350   61.5040  152.0800 O.3   120  TYR120     -0.2866
     80  N         10.7080   60.0610  155.2050 N.3   123  PHE123     -0.1241
     81  CA        11.8110   60.6360  155.9570 C.3   123  PHE123      0.1605
     82  C         11.4210   60.5620  157.4190 C.2   123  PHE123      0.2264
     83  O         10.2760   60.2370  157.7130 O.2   123  PHE123     -0.2867
     84  CB        12.0790   62.0890  155.5180 C.3   123  PHE123      0.0534
     85  CG        10.8980   63.0050  155.6830 C.ar  123  PHE123     -0.0203
     86  CD1        9.8920   63.0410  154.7280 C.ar  123  PHE123     -0.0042
     87  CD2       10.7500   63.7660  156.8370 C.ar  123  PHE123     -0.0042
     88  CE1        8.7490   63.8130  154.9220 C.ar  123  PHE123     -0.0003
     89  CE2        9.6120   64.5450  157.0460 C.ar  123  PHE123     -0.0003
     90  CZ         8.6030   64.5690  156.0880 C.ar  123  PHE123     -0.0000
     91  N         11.2910   62.2930  161.4510 N.3   125  GLN125     -0.1245
     92  CA        11.3340   63.4680  162.2980 C.3   125  GLN125      0.1566
     93  C         11.3400   63.1580  163.7910 C.2   125  GLN125      0.2260
     94  O         10.8410   62.1280  164.2510 O.2   125  GLN125     -0.2867
     95  CB        10.1210   64.3790  162.0280 C.3   125  GLN125      0.0367
     96  CG        10.0860   65.1210  160.7250 C.3   125  GLN125      0.0905
     97  CD         8.8860   66.0680  160.6600 C.2   125  GLN125      0.2608
     98  OE1        7.7910   65.7400  161.1200 O.2   125  GLN125     -0.2717
     99  NE2        9.0910   67.2510  160.0820 N.am  125  GLN125     -0.0878
    100  N          6.1110   69.1850  170.9540 N.3   129  GLU129     -0.1245
    101  CA         4.9080   69.9990  170.9460 C.3   129  GLU129      0.1567
    102  C          4.5560   70.2740  172.4070 C.2   129  GLU129      0.2260
    103  O          4.6300   69.3640  173.2470 O.2   129  GLU129     -0.2867
    104  CB         3.7240   69.2560  170.2900 C.3   129  GLU129      0.0388
    105  CG         3.9850   68.5020  168.9610 C.3   129  GLU129      0.1160
    106  CD         4.1590   69.3940  167.7380 C.2   129  GLU129      0.3649
    107  OE1        3.7560   70.5850  167.7610 O.co2 129  GLU129     -0.2457
    108  OE2        4.6900   68.8770  166.7370 O.co2 129  GLU129     -0.2457
    109  N          6.5890   79.5450  156.5740 N.3   213  ARG213     -0.1245
    110  CA         6.4140   78.1050  156.7630 C.3   213  ARG213      0.1563
    111  C          5.3130   77.6130  155.8150 C.2   213  ARG213      0.2260
    112  O          4.2790   78.2650  155.6610 O.2   213  ARG213     -0.2867
    113  CB         6.0220   77.7860  158.2180 C.3   213  ARG213      0.0307
    114  CG         6.9290   78.3710  159.3190 C.3   213  ARG213      0.0489
    115  CD         8.4110   78.0010  159.1620 C.3   213  ARG213      0.2205
    116  NE         8.6370   76.5860  158.8560 N.pl3 213  ARG213     -0.0865
    117  CZ         8.3330   75.5760  159.6640 C.cat 213  ARG213      0.5346
    118  NH1        7.7900   75.8050  160.8450 N.pl3 213  ARG213      0.1354
    119  NH2        8.5660   74.3320  159.2840 N.pl3 213  ARG213      0.1354
    120  N          3.1280   75.6120  156.2050 N.3   215  LEU215     -0.1245
    121  CA         1.9910   75.0730  156.9640 C.3   215  LEU215      0.1561
    122  C          1.1620   76.2120  157.5610 C.2   215  LEU215      0.2260
    123  O          1.6950   77.1070  158.2110 O.2   215  LEU215     -0.2867
    124  CB         2.4790   74.1490  158.0930 C.3   215  LEU215      0.0270
    125  CG         3.1470   72.8120  157.7520 C.3   215  LEU215      0.0019
    126  CD1        2.1800   71.9940  156.9210 C.3   215  LEU215      0.0001
    127  CD2        4.4580   73.0190  156.9960 C.3   215  LEU215      0.0001
    128  N         -0.9140   76.7570  160.2550 N.3   217  TYR217     -0.1227
    129  CA        -1.5200   76.6390  161.5790 C.3   217  TYR217      0.1736
    130  C         -0.7060   77.4550  162.5660 C.2   217  TYR217      0.2595
    131  O         -1.0720   77.5740  163.7390 O.2   217  TYR217     -0.2718
    132  CB        -1.7020   75.1760  162.0580 C.3   217  TYR217      0.0548
    133  CG        -0.5020   74.2590  162.0040 C.ar  217  TYR217     -0.0200
    134  CD1        0.6430   74.5140  162.7500 C.ar  217  TYR217     -0.0009
    135  CD2       -0.5250   73.1150  161.2120 C.ar  217  TYR217     -0.0009
    136  CE1        1.7330   73.6500  162.7030 C.ar  217  TYR217      0.0417
    137  CE2        0.5570   72.2480  161.1600 C.ar  217  TYR217      0.0417
    138  CZ         1.6810   72.5220  161.9040 C.ar  217  TYR217      0.1957
    139  OH         2.7570   71.6730  161.8250 O.3   217  TYR217     -0.2866
    140  N          0.3740   78.0530  162.0610 N.am  218  TYR218     -0.1976
    141  CA         1.2550   78.9000  162.8690 C.3   218  TYR218      0.1639
    142  C          0.7020   80.3020  163.1270 C.2   218  TYR218      0.2290
    143  O          0.0250   80.8760  162.2800 O.2   218  TYR218     -0.2864
    144  CB         2.6190   79.0930  162.1930 C.3   218  TYR218      0.0560
    145  CG         3.4780   77.8660  162.1180 C.ar  218  TYR218     -0.0198
    146  CD1        3.7100   77.0700  163.2510 C.ar  218  TYR218     -0.0009
    147  CD2        4.0570   77.4890  160.9130 C.ar  218  TYR218     -0.0009
    148  CE1        4.4950   75.9290  163.1720 C.ar  218  TYR218      0.0417
    149  CE2        4.8450   76.3500  160.8230 C.ar  218  TYR218      0.0417
    150  CZ         5.0620   75.5720  161.9470 C.ar  218  TYR218      0.1957
    151  OH         5.8460   74.4410  161.8250 O.3   218  TYR218     -0.2866
    152  N         18.0730   73.6730  155.9810 N.3   229  THR229     -0.1203
    153  CA        17.3870   73.7060  157.2670 C.3   229  THR229      0.1994
    154  C         17.1520   72.3110  157.8810 C.2   229  THR229      0.2618
    155  O         16.5600   71.4340  157.2580 O.2   229  THR229     -0.2717
    156  CB        16.0290   74.4660  157.1700 C.3   229  THR229      0.1784
    157  OG1       14.9550   73.6050  157.5580 O.3   229  THR229     -0.2211
    158  CG2       15.7910   74.9540  155.7790 C.3   229  THR229      0.0376
    159  N         17.6210   72.1360  159.1200 N.am  230  VAL230     -0.1965
    160  CA        17.5290   70.8830  159.8770 C.3   230  VAL230      0.1727
    161  C         16.3510   70.8070  160.8270 C.2   230  VAL230      0.2616
    162  O         15.8630   69.7300  161.1330 O.2   230  VAL230     -0.2715
    163  CB        18.7980   70.6610  160.7290 C.3   230  VAL230      0.0290
    164  CG1       18.5080   69.7040  161.8670 C.3   230  VAL230      0.0023
    165  CG2       19.9160   70.1160  159.8680 C.3   230  VAL230      0.0023
    166  N         15.9040   71.9540  161.3110 N.am  231  CYS231     -0.1954
    167  CA        14.7920   71.9790  162.2460 C.3   231  CYS231      0.1843
    168  C         13.9230   73.2120  161.9520 C.2   231  CYS231      0.2625
    169  O         14.3950   74.1910  161.3840 O.2   231  CYS231     -0.2714
    170  CB        15.3670   72.0050  163.6770 C.3   231  CYS231      0.0997
    171  SG        14.2480   71.5460  165.0490 S.3   231  CYS231     -0.0797
    172  N         12.6520   73.1510  162.3250 N.am  232  ALA232     -0.1963
    173  CA        11.7220   74.2520  162.1040 C.3   232  ALA232      0.1728
    174  C         10.4350   74.0100  162.8820 C.2   232  ALA232      0.2616
    175  O         10.0870   72.8650  163.1740 O.2   232  ALA232     -0.2715
    176  CB        11.4180   74.3740  160.6310 C.3   232  ALA232      0.0334
    177  N          9.7330   75.0890  163.2200 N.am  233  GLY233     -0.1955
    178  CA         8.4840   74.9900  163.9660 C.3   233  GLY233      0.1869
    179  C          7.9700   76.3840  164.2950 C.2   233  GLY233      0.2309
    180  O          8.4190   77.3640  163.7090 O.2   233  GLY233     -0.2863
    181  N          1.0290   77.7630  167.3160 N.3   236  TYR236     -0.1241
    182  CA        -0.2040   77.3680  166.6590 C.3   236  TYR236      0.1605
    183  C         -1.2980   77.2700  167.7350 C.2   236  TYR236      0.2264
    184  O         -1.8590   76.2100  167.9990 O.2   236  TYR236     -0.2867
    185  CB         0.0040   76.0350  165.9050 C.3   236  TYR236      0.0534
    186  CG         0.4790   74.8500  166.7350 C.ar  236  TYR236     -0.0201
    187  CD1        1.8400   74.5640  166.9010 C.ar  236  TYR236     -0.0009
    188  CD2       -0.4500   73.9980  167.3430 C.ar  236  TYR236     -0.0009
    189  CE1        2.2480   73.4510  167.6530 C.ar  236  TYR236      0.0417
    190  CE2       -0.0550   72.9080  168.0900 C.ar  236  TYR236      0.0417
    191  CZ         1.2800   72.6360  168.2440 C.ar  236  TYR236      0.1957
    192  OH         1.5980   71.5450  169.0070 O.3   236  TYR236     -0.2866
    193  N          5.6790   74.2500  168.9570 N.3   252  GLY252     -0.1210
    194  CA         6.4060   73.0290  168.6860 C.3   252  GLY252      0.1956
    195  C          7.3570   73.2340  167.5370 C.2   252  GLY252      0.2612
    196  O          7.4640   74.3320  167.0030 O.2   252  GLY252     -0.2717
    197  N          8.0510   72.1680  167.1660 N.am  253  PHE253     -0.1962
    198  CA         9.0030   72.1730  166.0620 C.3   253  PHE253      0.1771
    199  C          9.2950   70.7010  165.8090 C.2   253  PHE253      0.2619
    200  O          8.9290   69.8380  166.6270 O.2   253  PHE253     -0.2715
    201  CB        10.2830   72.8900  166.4700 C.3   253  PHE253      0.0574
    202  CG        11.0860   72.1540  167.5090 C.ar  253  PHE253     -0.0200
    203  CD1       11.9960   71.1720  167.1340 C.ar  253  PHE253     -0.0042
    204  CD2       10.8950   72.4070  168.8620 C.ar  253  PHE253     -0.0042
    205  CE1       12.6980   70.4510  168.0870 C.ar  253  PHE253     -0.0003
    206  CE2       11.5920   71.6910  169.8260 C.ar  253  PHE253     -0.0003
    207  CZ        12.4950   70.7090  169.4380 C.ar  253  PHE253     -0.0000
    208  N          9.9470   70.4120  164.6890 N.am  254  ALA254     -0.1977
    209  CA        10.2810   69.0420  164.3340 C.3   254  ALA254      0.1597
    210  C         11.5750   69.1240  163.5840 C.2   254  ALA254      0.2287
    211  O         11.8070   70.0870  162.8610 O.2   254  ALA254     -0.2864
    212  CB         9.2070   68.4390  163.4540 C.3   254  ALA254      0.0319
    213  N         14.5360   67.1660  161.0410 N.3   256  GLY256     -0.1225
    214  CA        14.7320   66.1440  160.0310 C.3   256  GLY256      0.1811
    215  C         15.9080   65.2970  160.4470 C.2   256  GLY256      0.2280
    216  O         17.0690   65.7380  160.3430 O.2   256  GLY256     -0.2866
    217  N         17.3110   62.7400  159.0670 N.3   258  GLU258     -0.1231
    218  CA        18.3150   62.3920  158.0480 C.3   258  GLU258      0.1699
    219  C         19.3010   63.5500  157.8250 C.2   258  GLU258      0.2592
    220  O         20.4950   63.3390  157.5560 O.2   258  GLU258     -0.2718
    221  CB        17.6530   62.0170  156.7210 C.3   258  GLU258      0.0402
    222  CG        16.9350   60.6880  156.7500 C.3   258  GLU258      0.1161
    223  CD        15.4600   60.8540  156.9370 C.2   258  GLU258      0.3649
    224  OE1       15.0500   61.7930  157.6500 O.co2 258  GLU258     -0.2457
    225  OE2       14.7050   60.0420  156.3880 O.co2 258  GLU258     -0.2457
    226  N         18.7870   64.7730  157.9290 N.am  259  ARG259     -0.1980
    227  CA        19.6120   65.9550  157.7680 C.3   259  ARG259      0.1597
    228  C         20.5610   66.0330  158.9570 C.2   259  ARG259      0.2287
    229  O         21.7780   66.1780  158.7830 O.2   259  ARG259     -0.2864
    230  CB        18.7280   67.2000  157.6850 C.3   259  ARG259      0.0334
    231  CG        17.9380   67.2610  156.3770 C.3   259  ARG259      0.0492
    232  CD        17.0290   68.4830  156.2370 C.3   259  ARG259      0.2205
    233  NE        16.3200   68.4430  154.9570 N.pl3 259  ARG259     -0.0865
    234  CZ        15.3280   69.2600  154.6040 C.cat 259  ARG259      0.5346
    235  NH1       14.9090   70.2050  155.4350 N.pl3 259  ARG259      0.1354
    236  NH2       14.7370   69.1180  153.4220 N.pl3 259  ARG259      0.1354
@<TRIPOS>BOND
     1    47    46    2
     2    46    45    1
     3    67    65    1
     4    45    44    1
     5    45    48    1
     6    66    65    1
     7    65    64    2
     8    48    49    1
     9    64    63    1
    10    49    50    1
    11    60    59    2
    12    63    62    1
    13    61    62    1
    14    61    58    1
    15    36    35    2
    16    35    34    1
    17    50    51   ar
    18    50    52   ar
    19    59    58    1
    20    59    68   am
    21    53    54    1
    22    58    57    1
    23    57    55   am
    24    69    70    1
    25    69    68    1
    26    69    72    1
    27    74    76   ar
    28    74    73   ar
    29    76    78   ar
    30    70    71    2
    31    34    37    1
    32    34    33    1
    33    37    38    1
    34    55    54    1
    35    55    56    2
    36    72    73    1
    37    73    75   ar
    38    78    79    1
    39    78    77   ar
    40    75    77   ar
    41    38    39    1
    42   236   234    1
    43    39    40    1
    44    42    41    1
    45   234   233    2
    46   234   235    1
    47    86    88   ar
    48    86    85   ar
    49    40    41    2
    50    88    90   ar
    51   233   232    1
    52    80    81    1
    53    41    43    1
    54    84    85    1
    55    84    81    1
    56   112   111    2
    57    85    87   ar
    58   158   156    1
    59   111   110    1
    60    81    82    1
    61   152   153    1
    62    90    89   ar
    63   120   121    1
    64   232   231    1
    65   231   230    1
    66   225   223   ar
    67   109   110    1
    68   221   222    1
    69   221   218    1
    70   222   223    1
    71   110   113    1
    72    87    89   ar
    73   126   125    1
    74   223   224   ar
    75   121   122    1
    76   121   124    1
    77   127   125    1
    78   156   153    1
    79   156   157    1
    80   155   154    2
    81   153   154    1
    82    82    83    2
    83   220   219    2
    84   122   123    2
    85   230   227    1
    86   125   124    1
    87   227   226    1
    88   227   228    1
    89   219   226   am
    90   219   218    1
    91   154   159   am
    92   218   217    1
    93   113   114    1
    94     1     2    1
    95   229   228    2
    96   116   115    1
    97   116   117    2
    98   159   160    1
    99   115   114    1
   100   119   117    1
   101     6     5    1
   102     6     7    1
   103     5     2    1
   104     2     3    1
   105   117   118    1
   106   165   163    1
   107   160   163    1
   108   160   161    1
   109   214   215    1
   110   214   213    1
   111    99    97   am
   112   128   129    1
   113   216   215    2
   114     7     8   ar
   115     7     9   ar
   116     4     3    2
   117   176   173    1
   118    97    96    1
   119    97    98    2
   120    96    95    1
   121   163   164    1
   122     3    10   am
   123   149   147   ar
   124   149   150   ar
   125   161   162    2
   126   161   166   am
   127   147   145   ar
   128   137   135   ar
   129   137   138   ar
   130   135   133   ar
   131   166   167    1
   132   169   168    2
   133    91    92    1
   134   129   132    1
   135   129   130    1
   136   151   150    1
   137   139   138    1
   138   138   136   ar
   139   150   148   ar
   140   168   167    1
   141   168   172   am
   142   133   132    1
   143   133   134   ar
   144    95    92    1
   145    10    11    1
   146   140   130   am
   147   140   141    1
   148   173   172    1
   149   173   174    1
   150   145   144    1
   151   145   146   ar
   152   144   141    1
   153   167   170    1
   154   143   142    2
   155    92    93    1
   156   130   131    2
   157   136   134   ar
   158   211   210    2
   159   141   142    1
   160   174   175    2
   161   174   177   am
   162   148   146   ar
   163    11    12    1
   164   177   178    1
   165   212   209    1
   166   210   209    1
   167   170   171    1
   168   180   179    2
   169    93    94    2
   170    19    18    1
   171    14    12   am
   172    14    15    1
   173   178   179    1
   174    12    13    2
   175    18    15    1
   176    18    20    1
   177   209   208    1
   178    16    15    1
   179    16    17    2
   180   208   199   am
   181    32    31    1
   182    29    31   ar
   183    29    27   ar
   184   199   198    1
   185   199   200    2
   186   185   182    1
   187   185   186    1
   188    31    30   ar
   189   198   201    1
   190   198   197    1
   191    27    26   ar
   192   201   202    1
   193   182   181    1
   194   182   183    1
   195   186   187   ar
   196   186   188   ar
   197   108   106   ar
   198   187   189   ar
   199   196   195    2
   200   203   202   ar
   201   203   205   ar
   202   197   195   am
   203    30    28   ar
   204   188   190   ar
   205   202   204   ar
   206   195   194    1
   207    24    23    2
   208    26    28   ar
   209    26    25    1
   210   189   191   ar
   211   183   184    2
   212   106   107   ar
   213   106   105    1
   214    23    22    1
   215   205   207   ar
   216   190   191   ar
   217   191   192    1
   218    25    22    1
   219   194   193    1
   220   204   206   ar
   221   105   104    1
   222    22    21    1
   223   207   206   ar
   224   104   101    1
   225   101   100    1
   226   101   102    1
   227   102   103    2
