@<TRIPOS>MOLECULE
tmp/2emsA00.pdb
 162 156 0 0 0
SMALL
GASTEIGER

@<TRIPOS>ATOM
      1  N         15.1370   55.0530   33.8970 N.3   241  TRP241     -0.1227
      2  CA        16.4480   55.4590   33.4040 C.3   241  TRP241      0.1737
      3  C         17.2650   56.2450   34.4310 C.2   241  TRP241      0.2596
      4  O         18.4590   55.9990   34.6070 O.2   241  TRP241     -0.2718
      5  CB        16.2830   56.2920   32.1320 C.3   241  TRP241      0.0564
      6  CG        15.8360   55.5080   30.9270 C.ar  241  TRP241      0.0003
      7  CD1       14.9290   55.9030   29.9880 C.ar  241  TRP241      0.0946
      8  CD2       16.3200   54.2250   30.4980 C.ar  241  TRP241      0.0152
      9  NE1       14.8180   54.9530   28.9980 N.ar  241  TRP241     -0.2442
     10  CE2       15.6600   53.9120   29.2860 C.ar  241  TRP241      0.0810
     11  CE3       17.2480   53.3120   31.0190 C.ar  241  TRP241      0.0012
     12  CZ2       15.8970   52.7220   28.5830 C.ar  241  TRP241      0.0191
     13  CZ3       17.4850   52.1280   30.3220 C.ar  241  TRP241      0.0001
     14  CH2       16.8100   51.8460   29.1140 C.ar  241  TRP241      0.0015
     15  N         16.6100   57.1800   35.1130 N.am  242  SER242     -0.1952
     16  CA        17.2680   58.0290   36.1010 C.3   242  SER242      0.1924
     17  C         17.7050   57.3620   37.4060 C.2   242  SER242      0.2314
     18  O         18.4660   57.9490   38.1760 O.2   242  SER242     -0.2863
     19  CB        16.3710   59.2280   36.4150 C.3   242  SER242      0.2116
     20  OG        15.0160   58.8300   36.5070 O.3   242  SER242     -0.2180
     21  N         19.0640   54.3180   37.3370 N.3   244  ILE244     -0.1231
     22  CA        20.1210   53.4130   36.9510 C.3   244  ILE244      0.1692
     23  C         21.3110   54.2860   36.6170 C.2   244  ILE244      0.2592
     24  O         21.1630   55.4120   36.1260 O.2   244  ILE244     -0.2718
     25  CB        19.6960   52.5410   35.7590 C.3   244  ILE244      0.0266
     26  CG1       18.5040   51.6780   36.1740 C.3   244  ILE244      0.0019
     27  CG2       20.8370   51.6330   35.3370 C.3   244  ILE244      0.0020
     28  CD1       17.8630   50.9290   35.0450 C.3   244  ILE244      0.0001
     29  N         22.4900   53.7750   36.9190 N.am  245  ARG245     -0.1966
     30  CA        23.7190   54.5290   36.7020 C.3   245  ARG245      0.1729
     31  C         24.5420   53.9010   35.6130 C.2   245  ARG245      0.2616
     32  O         25.2210   54.5640   34.8140 O.2   245  ARG245     -0.2715
     33  CB        24.5100   54.5620   37.9880 C.3   245  ARG245      0.0348
     34  CG        25.9600   54.9680   37.8310 C.3   245  ARG245      0.0492
     35  CD        26.7150   54.6820   39.0940 C.3   245  ARG245      0.2205
     36  NE        28.0940   55.1490   39.0340 N.pl3 245  ARG245     -0.0865
     37  CZ        28.9780   54.9660   40.0090 C.cat 245  ARG245      0.5346
     38  NH1       28.6230   54.3230   41.1160 N.pl3 245  ARG245      0.1354
     39  NH2       30.2140   55.4280   39.8830 N.pl3 245  ARG245      0.1354
     40  N         24.4690   52.5830   35.6350 N.am  246  ASN246     -0.1958
     41  CA        25.1860   51.7750   34.7110 C.3   246  ASN246      0.1819
     42  C         24.7820   50.3380   34.8190 C.2   246  ASN246      0.2621
     43  O         24.7310   49.6710   35.8840 O.2   246  ASN246     -0.2715
     44  CB        26.6790   51.8270   34.9320 C.3   246  ASN246      0.1195
     45  CG        27.0490   50.8730   36.0220 C.2   246  ASN246      0.2630
     46  OD1       26.3380   50.7570   36.9920 O.2   246  ASN246     -0.2716
     47  ND2       28.1870   50.1880   35.8580 N.am  246  ASN246     -0.0877
     48  N         24.5680   49.9300   33.5660 N.am  247  ILE247     -0.1963
     49  CA        24.2000   48.6390   33.0800 C.3   247  ILE247      0.1727
     50  C         25.4490   48.1060   32.3580 C.2   247  ILE247      0.2617
     51  O         26.1660   48.8080   31.6160 O.2   247  ILE247     -0.2715
     52  CB        22.9890   48.7420   32.1080 C.3   247  ILE247      0.0290
     53  CG1       23.2610   49.7300   30.9590 C.3   247  ILE247      0.0022
     54  CG2       21.7560   49.1710   32.8790 C.3   247  ILE247      0.0023
     55  CD1       22.1780   49.7220   29.8950 C.3   247  ILE247      0.0001
     56  N         25.6720   46.8060   32.6490 N.am  248  SER248     -0.1936
     57  CA        26.7980   45.9770   32.1930 C.3   248  SER248      0.2055
     58  C         26.4580   44.4560   32.0980 C.2   248  SER248      0.2643
     59  O         25.3790   44.0090   32.5100 O.2   248  SER248     -0.2714
     60  CB        27.9750   46.1640   33.1570 C.3   248  SER248      0.2130
     61  OG        27.8400   45.3860   34.3510 O.3   248  SER248     -0.2179
     62  N         27.4110   43.6530   31.5710 N.am  249  PHE249     -0.1959
     63  CA        27.2240   42.1970   31.4270 C.3   249  PHE249      0.1771
     64  C         28.4640   41.3790   31.0300 C.2   249  PHE249      0.2620
     65  O         29.3420   41.8770   30.3150 O.2   249  PHE249     -0.2715
     66  CB        26.0930   41.9020   30.4050 C.3   249  PHE249      0.0574
     67  CG        26.4800   42.0960   28.9430 C.ar  249  PHE249     -0.0200
     68  CD1       27.2590   41.1530   28.2800 C.ar  249  PHE249     -0.0042
     69  CD2       26.0350   43.2040   28.2280 C.ar  249  PHE249     -0.0042
     70  CE1       27.5900   41.3020   26.9380 C.ar  249  PHE249     -0.0003
     71  CE2       26.3610   43.3630   26.8810 C.ar  249  PHE249     -0.0003
     72  CZ        27.1410   42.4080   26.2380 C.ar  249  PHE249     -0.0000
     73  N         28.5360   40.1350   31.5160 N.am  250  ASN250     -0.1958
     74  CA        29.6120   39.2120   31.1480 C.3   250  ASN250      0.1819
     75  C         28.8650   38.1580   30.3270 C.2   250  ASN250      0.2621
     76  O         27.7180   38.3960   29.9670 O.2   250  ASN250     -0.2715
     77  CB        30.2800   38.5930   32.3730 C.3   250  ASN250      0.1195
     78  CG        31.7930   38.7470   32.3370 C.2   250  ASN250      0.2630
     79  OD1       32.5370   37.7890   32.5560 O.2   250  ASN250     -0.2716
     80  ND2       32.2530   39.9620   32.0610 N.am  250  ASN250     -0.0877
     81  N         29.4420   36.9980   30.0390 N.am  251  ASP251     -0.1971
     82  CA        28.6960   36.0630   29.1960 C.3   251  ASP251      0.1709
     83  C         27.1860   35.9460   29.4500 C.2   251  ASP251      0.2293
     84  O         26.3950   36.3680   28.6160 O.2   251  ASP251     -0.2864
     85  CB        29.3010   34.6580   29.1990 C.3   251  ASP251      0.1436
     86  CG        28.8640   33.8450   27.9850 C.2   251  ASP251      0.3671
     87  OD1       27.6650   33.8890   27.6280 O.co2 251  ASP251     -0.2456
     88  OD2       29.7150   33.1620   27.3860 O.co2 251  ASP251     -0.2456
     89  N         21.6680   54.1820   40.7960 N.3   259  ILE259     -0.1245
     90  CA        22.4020   55.4150   41.0520 C.3   259  ILE259      0.1561
     91  C         22.5830   55.5750   42.5620 C.2   259  ILE259      0.2260
     92  O         23.5080   56.2460   43.0170 O.2   259  ILE259     -0.2867
     93  CB        21.6510   56.6450   40.4630 C.3   259  ILE259      0.0252
     94  CG1       22.4960   57.9200   40.6170 C.3   259  ILE259      0.0019
     95  CG2       20.2860   56.7810   41.1190 C.3   259  ILE259      0.0019
     96  CD1       22.4310   58.6070   41.9920 C.3   259  ILE259      0.0001
     97  N         24.4880   34.4170   25.5690 N.3   273  LEU273     -0.1245
     98  CA        25.1630   35.7130   25.5270 C.3   273  LEU273      0.1561
     99  C         24.4900   36.6970   24.5840 C.2   273  LEU273      0.2260
    100  O         24.4230   37.8930   24.8710 O.2   273  LEU273     -0.2867
    101  CB        26.6250   35.5610   25.0970 C.3   273  LEU273      0.0270
    102  CG        27.3740   36.8670   24.7820 C.3   273  LEU273      0.0019
    103  CD1       27.2570   37.8660   25.9300 C.3   273  LEU273      0.0001
    104  CD2       28.8280   36.5500   24.5170 C.3   273  LEU273      0.0001
    105  N         23.5200   41.0960   25.0180 N.3   277  LYS277     -0.1245
    106  CA        24.0030   42.1380   24.1160 C.3   277  LYS277      0.1561
    107  C         22.8120   42.8380   23.4920 C.2   277  LYS277      0.2260
    108  O         22.8410   44.0500   23.2720 O.2   277  LYS277     -0.2867
    109  CB        24.8820   41.5420   23.0130 C.3   277  LYS277      0.0271
    110  CG        26.0700   40.7550   23.5480 C.3   277  LYS277      0.0035
    111  CD        27.0010   40.2580   22.4430 C.3   277  LYS277      0.0206
    112  CE        27.8300   41.3840   21.8420 C.3   277  LYS277      0.1093
    113  NZ        28.5750   40.9340   20.6240 N.3   277  LYS277     -0.1314
    114  N         21.1330   45.2000   26.1120 N.3   280  LEU280     -0.1245
    115  CA        21.9040   46.4230   26.2440 C.3   280  LEU280      0.1561
    116  C         21.7060   47.2660   24.9920 C.2   280  LEU280      0.2260
    117  O         21.6710   48.4950   25.0450 O.2   280  LEU280     -0.2867
    118  CB        23.3800   46.0930   26.4200 C.3   280  LEU280      0.0270
    119  CG        24.2330   47.3400   26.6350 C.3   280  LEU280      0.0019
    120  CD1       25.1630   47.1200   27.8050 C.3   280  LEU280      0.0001
    121  CD2       25.0020   47.6660   25.3590 C.3   280  LEU280      0.0001
    122  N         18.5770   49.1360   25.3520 N.3   283  CYS283     -0.1221
    123  CA        18.6780   50.1230   26.4100 C.3   283  CYS283      0.1808
    124  C         19.3320   51.3860   25.8910 C.2   283  CYS283      0.2601
    125  O         18.9220   52.4790   26.2610 O.2   283  CYS283     -0.2717
    126  CB        19.4390   49.5460   27.5990 C.3   283  CYS283      0.0970
    127  SG        18.4680   48.2740   28.4670 S.3   283  CYS283     -0.0800
    128  N         20.3310   51.2420   25.0230 N.am  284  MET284     -0.1979
    129  CA        20.9990   52.4050   24.4380 C.3   284  MET284      0.1605
    130  C         19.9910   53.1720   23.6130 C.2   284  MET284      0.2287
    131  O         19.8230   54.3850   23.7610 O.2   284  MET284     -0.2864
    132  CB        22.1160   51.9950   23.4840 C.3   284  MET284      0.0413
    133  CG        23.4450   51.6800   24.1070 C.3   284  MET284      0.0598
    134  SD        24.7100   51.9060   22.8490 S.3   284  MET284     -0.1393
    135  CE        25.4550   53.4780   23.3740 C.3   284  MET284      0.0692
    136  N         17.0560   54.9120   25.6630 N.3   287  HIS287     -0.1241
    137  CA        17.6780   55.9720   26.4440 C.3   287  HIS287      0.1621
    138  C         18.0870   57.0880   25.4970 C.2   287  HIS287      0.2264
    139  O         17.7190   58.2530   25.6900 O.2   287  HIS287     -0.2867
    140  CB        18.9000   55.4440   27.1750 C.3   287  HIS287      0.0745
    141  CG        19.4270   56.3930   28.1980 C.ar  287  HIS287      0.0817
    142  ND1       20.1140   57.5410   27.8680 N.ar  287  HIS287     -0.2268
    143  CD2       19.3170   56.3930   29.5470 C.ar  287  HIS287      0.1154
    144  CE1       20.4020   58.2100   28.9700 C.ar  287  HIS287      0.1986
    145  NE2       19.9290   57.5350   30.0040 N.ar  287  HIS287     -0.2212
    146  N         16.5380   61.0620   25.7120 N.3   291  MET291     -0.1245
    147  CA        17.2210   62.3130   25.9430 C.3   291  MET291      0.1570
    148  C         16.9110   63.2450   24.7740 C.2   291  MET291      0.2261
    149  O         16.4910   64.3850   24.9720 O.2   291  MET291     -0.2867
    150  CB        18.7170   62.0560   26.0890 C.3   291  MET291      0.0387
    151  CG        19.0450   61.1720   27.2800 C.3   291  MET291      0.0595
    152  SD        20.8030   61.1140   27.6070 S.3   291  MET291     -0.1393
    153  CE        21.0740   62.7760   28.2950 C.3   291  MET291      0.0692
    154  N         15.3650   67.6300   24.8580 N.3   295  LYS295     -0.1245
    155  CA        16.2430   68.6940   24.3950 C.3   295  LYS295      0.1561
    156  C         15.4560   69.3160   23.2400 C.2   295  LYS295      0.2260
    157  O         14.5080   68.7110   22.7350 O.2   295  LYS295     -0.2867
    158  CB        17.5610   68.1220   23.8760 C.3   295  LYS295      0.0271
    159  CG        18.2070   67.1180   24.7990 C.3   295  LYS295      0.0035
    160  CD        19.4130   66.4660   24.1360 C.3   295  LYS295      0.0206
    161  CE        19.8520   65.2060   24.8860 C.3   295  LYS295      0.1093
    162  NZ        20.2090   65.4570   26.3150 N.3   295  LYS295     -0.1314
@<TRIPOS>BOND
     1   113   112    1
     2   112   111    1
     3   111   110    1
     4   157   156    2
     5   134   135    1
     6   134   133    1
     7   109   110    1
     8   109   106    1
     9   156   155    1
    10   108   107    2
    11   132   133    1
    12   132   129    1
    13   107   106    1
    14   130   131    2
    15   130   129    1
    16   158   155    1
    17   158   159    1
    18   106   105    1
    19   160   159    1
    20   160   161    1
    21   155   154    1
    22   129   128    1
    23   104   102    1
    24    99   100    2
    25    99    98    1
    26   148   149    2
    27   148   147    1
    28   102   101    1
    29   102   103    1
    30   161   162    1
    31   116   117    2
    32   116   115    1
    33   128   124   am
    34   101    98    1
    35   122   123    1
    36   121   119    1
    37   138   139    2
    38   138   137    1
    39    98    97    1
    40   136   137    1
    41   146   147    1
    42   124   125    2
    43   124   123    1
    44   147   150    1
    45   150   151    1
    46   114   115    1
    47    72    71   ar
    48    72    70   ar
    49   115   118    1
    50   123   126    1
    51   118   119    1
    52   137   140    1
    53   119   120    1
    54    71    69   ar
    55    70    68   ar
    56   140   141    1
    57   151   152    1
    58    88    86   ar
    59   126   127    1
    60   152   153    1
    61    87    86   ar
    62   142   141   ar
    63   142   144   ar
    64    86    85    1
    65   141   143   ar
    66    69    67   ar
    67    68    67   ar
    68    12    14   ar
    69    12    10   ar
    70    84    83    2
    71    67    66    1
    72   144   145   ar
    73     9    10   ar
    74     9     7   ar
    75    14    13   ar
    76    82    85    1
    77    82    83    1
    78    82    81    1
    79    10     8   ar
    80   143   145   ar
    81    55    53    1
    82    76    75    2
    83     7     6   ar
    84    81    75   am
    85    65    64    2
    86    13    11   ar
    87    75    74    1
    88    66    63    1
    89     8     6   ar
    90     8    11   ar
    91     6     5    1
    92    53    52    1
    93    64    63    1
    94    64    73   am
    95    74    73    1
    96    74    77    1
    97    63    62    1
    98    62    58   am
    99    51    50    2
   100    80    78   am
   101    58    57    1
   102    58    59    2
   103    52    54    1
   104    52    49    1
   105     5     2    1
   106    57    56    1
   107    57    60    1
   108    78    77    1
   109    78    79    2
   110    50    56   am
   111    50    49    1
   112    49    48    1
   113    60    61    1
   114     2     1    1
   115     2     3    1
   116    48    42   am
   117     3     4    2
   118     3    15   am
   119    41    42    1
   120    41    44    1
   121    41    40    1
   122    32    31    2
   123    42    43    2
   124    44    45    1
   125    28    26    1
   126    15    16    1
   127    27    25    1
   128    31    40   am
   129    31    30    1
   130    25    26    1
   131    25    22    1
   132    47    45   am
   133    45    46    2
   134    16    19    1
   135    16    17    1
   136    24    23    2
   137    19    20    1
   138    23    29   am
   139    23    22    1
   140    30    29    1
   141    30    33    1
   142    22    21    1
   143    17    18    2
   144    34    33    1
   145    34    35    1
   146    36    35    1
   147    36    37    2
   148    39    37    1
   149    37    38    1
   150    93    94    1
   151    93    90    1
   152    93    95    1
   153    94    96    1
   154    89    90    1
   155    90    91    1
   156    91    92    2
