@<TRIPOS>MOLECULE
tmp/2emtA00.pdb
 122 117 0 0 0
SMALL
GASTEIGER

@<TRIPOS>ATOM
      1  N         69.2360   12.5950   32.4460 N.3     1  MET1       -0.1245
      2  CA        67.7750   12.3200   32.5690 C.3     1  MET1        0.1570
      3  C         67.4980   11.0490   33.3410 C.2     1  MET1        0.2261
      4  O         67.6900    9.9500   32.8190 O.2     1  MET1       -0.2867
      5  CB        67.1370   12.1890   31.1980 C.3     1  MET1        0.0387
      6  CG        66.8680   13.4970   30.5240 C.3     1  MET1        0.0595
      7  SD        65.6000   13.2320   29.3040 S.3     1  MET1       -0.1393
      8  CE        64.1360   13.0960   30.3650 C.3     1  MET1        0.0692
      9  N         61.9090    7.8750   34.8680 N.3     4  PRO4       -0.2116
     10  CA        60.6000    8.4770   35.1230 C.3     4  PRO4        0.1372
     11  C         59.7650    7.6780   36.1200 C.2     4  PRO4        0.2244
     12  O         59.8050    6.4430   36.1270 O.2     4  PRO4       -0.2868
     13  CB        59.9730    8.5130   33.7340 C.3     4  PRO4        0.0268
     14  CG        60.5070    7.2640   33.1140 C.3     4  PRO4        0.0207
     15  CD        61.9670    7.3120   33.5050 C.3     4  PRO4        0.0892
     16  N         56.0250    6.8660   37.1730 N.3     6  ASN6       -0.1240
     17  CA        54.6330    6.9060   36.7230 C.3     6  ASN6        0.1653
     18  C         53.6480    7.0760   37.8610 C.2     6  ASN6        0.2266
     19  O         53.8270    6.5050   38.9280 O.2     6  ASN6       -0.2867
     20  CB        54.2950    5.6270   35.9660 C.3     6  ASN6        0.1155
     21  CG        55.3630    5.2520   34.9650 C.2     6  ASN6        0.2627
     22  OD1       56.5010    4.9730   35.3340 O.2     6  ASN6       -0.2716
     23  ND2       55.0050    5.2510   33.6850 N.am    6  ASN6       -0.0877
     24  N         35.4530   10.8940   37.6520 N.3    13  ASP13      -0.1225
     25  CA        34.9890   10.4140   36.3570 C.3    13  ASP13       0.1805
     26  C         36.0700   10.3290   35.2920 C.2    13  ASP13       0.2598
     27  O         35.7770   10.1000   34.1210 O.2    13  ASP13      -0.2718
     28  CB        33.8340   11.2920   35.8530 C.3    13  ASP13       0.1424
     29  CG        34.2870   12.6740   35.4120 C.2    13  ASP13       0.3668
     30  OD1       35.0950   13.2950   36.1290 O.co2  13  ASP13      -0.2456
     31  OD2       33.8250   13.1490   34.3520 O.co2  13  ASP13      -0.2456
     32  N         37.3200   10.5000   35.6960 N.am   14  ALA14      -0.1966
     33  CA        38.4240   10.4220   34.7550 C.3    14  ALA14       0.1728
     34  C         39.6100    9.6930   35.3670 C.2    14  ALA14       0.2616
     35  O         39.7490    9.6050   36.5810 O.2    14  ALA14      -0.2715
     36  CB        38.8350   11.8110   34.3360 C.3    14  ALA14       0.0334
     37  N         40.4670    9.1590   34.5170 N.am   15  GLU15      -0.1963
     38  CA        41.6410    8.4570   34.9910 C.3    15  GLU15       0.1733
     39  C         42.8200    9.0290   34.2260 C.2    15  GLU15       0.2616
     40  O         42.8410    9.0130   33.0010 O.2    15  GLU15      -0.2715
     41  CB        41.4910    6.9620   34.7300 C.3    15  GLU15       0.0429
     42  CG        42.7340    6.1430   34.9770 C.3    15  GLU15       0.1163
     43  CD        42.4850    4.6700   34.7260 C.2    15  GLU15       0.3649
     44  OE1       43.4690    3.9020   34.6360 O.co2  15  GLU15      -0.2457
     45  OE2       41.2990    4.2850   34.6240 O.co2  15  GLU15      -0.2457
     46  N         43.7890    9.5630   34.9520 N.am   16  LEU16      -0.1963
     47  CA        44.9660   10.1390   34.3220 C.3    16  LEU16       0.1728
     48  C         46.2180    9.3410   34.6950 C.2    16  LEU16       0.2616
     49  O         46.3670    8.8790   35.8310 O.2    16  LEU16      -0.2715
     50  CB        45.1360   11.5920   34.7650 C.3    16  LEU16       0.0311
     51  CG        43.8930   12.4750   34.6890 C.3    16  LEU16       0.0022
     52  CD1       44.1710   13.8350   35.3290 C.3    16  LEU16       0.0001
     53  CD2       43.4930   12.6360   33.2450 C.3    16  LEU16       0.0001
     54  N         47.1060    9.1810   33.7200 N.am   17  GLU17      -0.1963
     55  CA        48.3640    8.4750   33.9060 C.3    17  GLU17       0.1733
     56  C         49.4720    9.2610   33.2360 C.2    17  GLU17       0.2616
     57  O         49.3950    9.5350   32.0460 O.2    17  GLU17      -0.2715
     58  CB        48.3310    7.1020   33.2530 C.3    17  GLU17       0.0429
     59  CG        47.3560    6.1330   33.8390 C.3    17  GLU17       0.1163
     60  CD        47.4740    4.7610   33.1980 C.2    17  GLU17       0.3649
     61  OE1       47.4440    4.6910   31.9480 O.co2  17  GLU17      -0.2457
     62  OE2       47.5970    3.7570   33.9350 O.co2  17  GLU17      -0.2457
     63  N         50.4940    9.6420   33.9900 N.am   18  PHE18      -0.1960
     64  CA        51.6370   10.3350   33.4070 C.3    18  PHE18       0.1771
     65  C         52.8560   10.2070   34.2830 C.2    18  PHE18       0.2619
     66  O         52.7490   10.0140   35.4920 O.2    18  PHE18      -0.2715
     67  CB        51.3500   11.8160   33.1290 C.3    18  PHE18       0.0574
     68  CG        50.6040   12.5110   34.2120 C.ar   18  PHE18      -0.0200
     69  CD1       49.2800   12.8950   34.0170 C.ar   18  PHE18      -0.0042
     70  CD2       51.2190   12.8070   35.4120 C.ar   18  PHE18      -0.0042
     71  CE1       48.5750   13.5690   35.0030 C.ar   18  PHE18      -0.0003
     72  CE2       50.5270   13.4790   36.4090 C.ar   18  PHE18      -0.0003
     73  CZ        49.1990   13.8640   36.2030 C.ar   18  PHE18      -0.0000
     74  N         54.0220   10.2930   33.6630 N.am   19  ALA19      -0.1963
     75  CA        55.2590   10.1770   34.4060 C.3    19  ALA19       0.1728
     76  C         55.7270   11.5310   34.9050 C.2    19  ALA19       0.2616
     77  O         55.4780   12.5720   34.2840 O.2    19  ALA19      -0.2715
     78  CB        56.3310    9.5430   33.5390 C.3    19  ALA19       0.0334
     79  N         56.3980   11.5040   36.0470 N.am   20  ILE20      -0.1963
     80  CA        56.9440   12.7170   36.6320 C.3    20  ILE20       0.1727
     81  C         58.4230   12.5080   36.9120 C.2    20  ILE20       0.2616
     82  O         58.9040   11.3690   37.0020 O.2    20  ILE20      -0.2715
     83  CB        56.2560   13.0800   37.9630 C.3    20  ILE20       0.0290
     84  CG1       56.5040   11.9810   38.9980 C.3    20  ILE20       0.0022
     85  CG2       54.7600   13.3110   37.7330 C.3    20  ILE20       0.0023
     86  CD1       56.0280   12.3410   40.3800 C.3    20  ILE20       0.0001
     87  N         59.1450   13.6110   37.0440 N.am   21  GLN21      -0.1977
     88  CA        60.5560   13.5240   37.3470 C.3    21  GLN21       0.1601
     89  C         60.7270   13.4780   38.8670 C.2    21  GLN21       0.2287
     90  O         59.9850   14.1190   39.6110 O.2    21  GLN21      -0.2864
     91  CB        61.2950   14.7000   36.7250 C.3    21  GLN21       0.0394
     92  CG        61.3580   14.6120   35.2190 C.3    21  GLN21       0.0908
     93  CD        62.0190   15.8180   34.6110 C.2    21  GLN21       0.2608
     94  OE1       63.1320   16.1710   34.9860 O.2    21  GLN21      -0.2717
     95  NE2       61.3400   16.4630   33.6650 N.am   21  GLN21      -0.0878
     96  N         49.4180   20.0530   36.7280 N.3    32  GLN32      -0.1245
     97  CA        49.3070   19.2890   35.4880 C.3    32  GLN32       0.1566
     98  C         47.9050   18.6690   35.4420 C.2    32  GLN32       0.2260
     99  O         47.1930   18.7950   34.4420 O.2    32  GLN32      -0.2867
    100  CB        50.3980   18.2080   35.4490 C.3    32  GLN32       0.0367
    101  CG        50.4580   17.3530   34.1830 C.3    32  GLN32       0.0905
    102  CD        51.6950   16.4580   34.1410 C.2    32  GLN32       0.2608
    103  OE1       52.0190   15.7780   35.1120 O.2    32  GLN32      -0.2717
    104  NE2       52.3850   16.4520   33.0080 N.am   32  GLN32      -0.0878
    105  N         44.8770   19.5930   33.0080 N.3    36  THR36      -0.1218
    106  CA        44.4170   18.5510   32.1060 C.3    36  THR36       0.1862
    107  C         42.9080   18.4690   32.1090 C.2    36  THR36       0.2287
    108  O         42.2950   18.2510   31.0630 O.2    36  THR36      -0.2866
    109  CB        44.9640   17.1800   32.5010 C.3    36  THR36       0.1770
    110  OG1       46.3940   17.1980   32.4090 O.3    36  THR36      -0.2211
    111  CG2       44.4050   16.1020   31.5780 C.3    36  THR36       0.0375
    112  N         30.2240   18.9930   38.4850 N.3   100  ARG100     -0.1245
    113  CA        29.9680   17.5680   38.3950 C.3   100  ARG100      0.1563
    114  C         30.8910   16.7700   39.2840 C.2   100  ARG100      0.2260
    115  O         30.5380   15.6740   39.7000 O.2   100  ARG100     -0.2867
    116  CB        30.0360   17.0710   36.9570 C.3   100  ARG100      0.0307
    117  CG        31.3680   17.1540   36.3330 C.3   100  ARG100      0.0489
    118  CD        31.2430   16.7630   34.8890 C.3   100  ARG100      0.2205
    119  NE        32.5110   16.9280   34.1950 N.pl3 100  ARG100     -0.0865
    120  CZ        32.6570   16.7980   32.8860 C.cat 100  ARG100      0.5346
    121  NH1       31.6060   16.4990   32.1290 N.pl3 100  ARG100      0.1354
    122  NH2       33.8500   16.9730   32.3360 N.pl3 100  ARG100      0.1354
@<TRIPOS>BOND
     1     7     8    1
     2     7     6    1
     3     6     5    1
     4   108   107    2
     5     5     2    1
     6   111   109    1
     7    61    60   ar
     8    57    56    2
     9   106   107    1
    10   106   109    1
    11   106   105    1
    12   121   120    1
    13   122   120    1
    14   110   109    1
    15     1     2    1
    16     2     3    1
    17     4     3    2
    18   120   119    2
    19    40    39    2
    20   104   102   am
    21    14    15    1
    22    14    13    1
    23    67    64    1
    24    67    68    1
    25    60    59    1
    26    60    62   ar
    27    56    55    1
    28    56    63   am
    29    53    51    1
    30    58    59    1
    31    58    55    1
    32    64    63    1
    33    64    65    1
    34    15     9    1
    35    78    75    1
    36    74    65   am
    37    74    75    1
    38    95    93   am
    39    23    21   am
    40    54    55    1
    41    54    48   am
    42    13    10    1
    43    69    68   ar
    44    69    71   ar
    45    27    26    2
    46   102   101    1
    47   102   103    2
    48   101   100    1
    49   119   118    1
    50    68    70   ar
    51    39    46   am
    52    39    38    1
    53    65    66    2
    54    77    76    2
    55    47    48    1
    56    47    50    1
    57    47    46    1
    58    36    33    1
    59    31    29   ar
    60    75    76    1
    61    99    98    2
    62    37    38    1
    63    37    34   am
    64    93    94    2
    65    93    92    1
    66    45    43   ar
    67    44    43   ar
    68    51    50    1
    69    51    52    1
    70    48    49    2
    71    43    42    1
    72    41    42    1
    73    41    38    1
    74    33    34    1
    75    33    32    1
    76     9    10    1
    77   118   117    1
    78    76    79   am
    79    21    22    2
    80    21    20    1
    81    71    73   ar
    82    10    11    1
    83    92    91    1
    84    26    32   am
    85    26    25    1
    86    34    35    2
    87    29    28    1
    88    29    30   ar
    89    70    72   ar
    90    98    97    1
    91   100    97    1
    92    97    96    1
    93    28    25    1
    94    20    17    1
    95    79    80    1
    96    11    12    2
    97    73    72   ar
    98   117   116    1
    99    25    24    1
   100    80    81    1
   101    80    83    1
   102    17    16    1
   103    17    18    1
   104    91    88    1
   105    81    82    2
   106    81    87   am
   107   116   113    1
   108    87    88    1
   109    88    89    1
   110    85    83    1
   111    18    19    2
   112    83    84    1
   113   113   112    1
   114   113   114    1
   115    89    90    2
   116    84    86    1
   117   114   115    2
