@<TRIPOS>MOLECULE
tmp/2enxB00.pdb
 117 111 0 0 0
SMALL
GASTEIGER

@<TRIPOS>ATOM
      1  N        -54.6920   67.5270    8.5190 N.3     8  HIS8       -0.1241
      2  CA       -55.6060   68.6720    8.3980 C.3     8  HIS8        0.1621
      3  C        -56.8740   68.5960    9.2530 C.2     8  HIS8        0.2264
      4  O        -57.0710   67.6790   10.0480 O.2     8  HIS8       -0.2867
      5  CB       -55.9710   68.9550    6.9270 C.3     8  HIS8        0.0745
      6  CG       -56.5060   67.7700    6.1810 C.ar    8  HIS8        0.0817
      7  ND1      -57.8010   67.3200    6.3240 N.ar    8  HIS8       -0.2268
      8  CD2      -55.9270   66.9590    5.2580 C.ar    8  HIS8        0.1154
      9  CE1      -57.9940   66.2840    5.5230 C.ar    8  HIS8        0.1986
     10  NE2      -56.8710   66.0390    4.8710 N.ar    8  HIS8       -0.2212
     11  N        -58.9080   62.7230    7.1790 N.3    12  ASP12      -0.1239
     12  CA       -59.2620   61.5730    6.3980 C.3    12  ASP12       0.1674
     13  C        -58.2480   60.5520    6.8580 C.2    12  ASP12       0.2266
     14  O        -57.4360   60.8560    7.7320 O.2    12  ASP12      -0.2867
     15  CB       -59.0880   61.8940    4.9170 C.3    12  ASP12       0.1410
     16  CG       -57.7350   62.5370    4.6160 C.2    12  ASP12       0.3668
     17  OD1      -57.1050   63.0140    5.5780 O.co2  12  ASP12      -0.2456
     18  OD2      -57.2800   62.5690    3.4410 O.co2  12  ASP12      -0.2456
     19  N        -50.0280   65.9070    5.0510 N.3    76  ASP76      -0.1239
     20  CA       -51.1910   65.9160    4.1580 C.3    76  ASP76       0.1674
     21  C        -51.7370   67.3210    3.8840 C.2    76  ASP76       0.2266
     22  O        -52.8170   67.4580    3.3250 O.2    76  ASP76      -0.2867
     23  CB       -52.3020   64.9810    4.6830 C.3    76  ASP76       0.1410
     24  CG       -53.3010   64.5390    3.5910 C.2    76  ASP76       0.3668
     25  OD1      -54.3290   63.8960    3.9110 O.co2  76  ASP76      -0.2456
     26  OD2      -53.0700   64.8130    2.4020 O.co2  76  ASP76      -0.2456
     27  N        -48.6070   65.7920   -0.3670 N.3    98  HIS98      -0.1226
     28  CA       -48.8340   65.5550   -1.8040 C.3    98  HIS98       0.1752
     29  C        -49.8770   66.5010   -2.4000 C.2    98  HIS98       0.2596
     30  O        -50.6660   66.0880   -3.2350 O.2    98  HIS98      -0.2718
     31  CB       -49.1930   64.0750   -2.1110 C.3    98  HIS98       0.0759
     32  CG       -50.5020   63.5920   -1.5320 C.ar   98  HIS98       0.0818
     33  ND1      -51.5640   63.2010   -2.3190 N.ar   98  HIS98      -0.2268
     34  CD2      -50.9030   63.3950   -0.2500 C.ar   98  HIS98       0.1154
     35  CE1      -52.5680   62.8100   -1.5520 C.ar   98  HIS98       0.1986
     36  NE2      -52.1910   62.9130   -0.2910 N.ar   98  HIS98      -0.2212
     37  N        -49.8750   67.7680   -1.9880 N.am   99  HIS99      -0.1975
     38  CA       -50.8960   68.7530   -2.4260 C.3    99  HIS99       0.1656
     39  C        -50.3230   69.9220   -3.2260 C.2    99  HIS99       0.2291
     40  O        -49.1690   69.9000   -3.6130 O.2    99  HIS99      -0.2864
     41  CB       -51.6580   69.3040   -1.2170 C.3    99  HIS99       0.0771
     42  CG       -52.7230   68.3880   -0.7040 C.ar   99  HIS99       0.0820
     43  ND1      -52.5320   67.5500    0.3710 N.ar   99  HIS99      -0.2267
     44  CD2      -53.9950   68.1800   -1.1220 C.ar   99  HIS99       0.1154
     45  CE1      -53.6410   66.8730    0.6000 C.ar   99  HIS99       0.1986
     46  NE2      -54.5450   67.2380   -0.2890 N.ar   99  HIS99      -0.2212
     47  N        -57.0700   57.5620   -0.3740 N.3   150  ASP150     -0.1239
     48  CA       -56.8010   58.6560   -1.2760 C.3   150  ASP150      0.1674
     49  C        -56.8800   58.2340   -2.7450 C.2   150  ASP150      0.2266
     50  O        -56.9860   59.0900   -3.6130 O.2   150  ASP150     -0.2867
     51  CB       -55.4210   59.2750   -0.9820 C.3   150  ASP150      0.1410
     52  CG       -55.4260   60.2780    0.1880 C.2   150  ASP150      0.3668
     53  OD1      -56.3630   60.2860    1.0070 O.co2 150  ASP150     -0.2456
     54  OD2      -54.4580   61.0660    0.2930 O.co2 150  ASP150     -0.2456
     55  N        -65.8280   65.5810    4.6760 N.3   204  ASP204     -0.1239
     56  CA       -64.5840   65.7490    3.9500 C.3   204  ASP204      0.1674
     57  C        -64.6060   67.0710    3.1860 C.2   204  ASP204      0.2266
     58  O        -64.8100   67.1060    1.9540 O.2   204  ASP204     -0.2867
     59  CB       -64.3490   64.5770    3.0080 C.3   204  ASP204      0.1410
     60  CG       -62.9430   64.5560    2.4460 C.2   204  ASP204      0.3668
     61  OD1      -62.2370   65.5800    2.5010 O.co2 204  ASP204     -0.2456
     62  OD2      -62.5330   63.5120    1.9170 O.co2 204  ASP204     -0.2456
     63  N        -62.7160   71.0640    2.8140 N.3   206  LYS206     -0.1245
     64  CA       -61.5520   71.9500    2.9460 C.3   206  LYS206      0.1561
     65  C        -61.8630   73.3230    2.3390 C.2   206  LYS206      0.2260
     66  O        -62.6720   73.4180    1.4060 O.2   206  LYS206     -0.2867
     67  CB       -60.3820   71.3460    2.1760 C.3   206  LYS206      0.0271
     68  CG       -59.8760   70.0070    2.7000 C.3   206  LYS206      0.0035
     69  CD       -58.9670   69.3190    1.7020 C.3   206  LYS206      0.0206
     70  CE       -58.0440   68.3430    2.4020 C.3   206  LYS206      0.1093
     71  NZ       -57.1830   67.5730    1.4430 N.3   206  LYS206     -0.1314
     72  N        -60.4730   76.9790    0.4300 N.3   208  PHE208     -0.1241
     73  CA       -59.4240   77.4700   -0.4260 C.3   208  PHE208      0.1605
     74  C        -59.5390   78.9720   -0.7090 C.2   208  PHE208      0.2264
     75  O        -60.5920   79.4260   -1.1680 O.2   208  PHE208     -0.2867
     76  CB       -59.4710   76.7000   -1.7410 C.3   208  PHE208      0.0534
     77  CG       -59.2420   75.2240   -1.5890 C.ar  208  PHE208     -0.0203
     78  CD1      -60.2840   74.3710   -1.1840 C.ar  208  PHE208     -0.0042
     79  CD2      -57.9810   74.6720   -1.8600 C.ar  208  PHE208     -0.0042
     80  CE1      -60.0770   72.9990   -1.0590 C.ar  208  PHE208     -0.0003
     81  CE2      -57.7620   73.3030   -1.7280 C.ar  208  PHE208     -0.0003
     82  CZ       -58.8100   72.4690   -1.3330 C.ar  208  PHE208     -0.0000
     83  N        -66.7710   66.9790   -0.1540 N.3   219  GLN219     -0.1245
     84  CA       -66.8890   65.7330   -0.9280 C.3   219  GLN219      0.1566
     85  C        -67.5530   64.6090   -0.1640 C.2   219  GLN219      0.2260
     86  O        -67.3200   64.4270    1.0330 O.2   219  GLN219     -0.2867
     87  CB       -65.5300   65.2410   -1.4210 C.3   219  GLN219      0.0367
     88  CG       -65.6540   64.1780   -2.4910 C.3   219  GLN219      0.0905
     89  CD       -64.3200   63.6970   -3.0390 C.2   219  GLN219      0.2608
     90  OE1      -63.3050   63.6980   -2.3380 O.2   219  GLN219     -0.2717
     91  NE2      -64.3210   63.2620   -4.2930 N.am  219  GLN219     -0.0878
     92  N        -61.1020   63.2680   -8.1450 N.3   295  SER295     -0.1202
     93  CA       -60.0410   63.8450   -7.3010 C.3   295  SER295      0.2020
     94  C        -60.1940   65.3410   -7.0930 C.2   295  SER295      0.2619
     95  O        -60.2340   66.0830   -8.0600 O.2   295  SER295     -0.2717
     96  CB       -58.6640   63.5700   -7.9420 C.3   295  SER295      0.2103
     97  OG       -57.6940   64.5700   -7.6290 O.3   295  SER295     -0.2182
     98  N        -60.2290   65.7900   -5.8430 N.am  296  ARG296     -0.1965
     99  CA       -60.3700   67.2120   -5.5790 C.3   296  ARG296      0.1729
    100  C        -59.0700   67.9480   -5.9040 C.2   296  ARG296      0.2616
    101  O        -59.0760   68.9860   -6.5820 O.2   296  ARG296     -0.2715
    102  CB       -60.8160   67.4610   -4.1450 C.3   296  ARG296      0.0348
    103  CG       -61.0170   68.9270   -3.7980 C.3   296  ARG296      0.0492
    104  CD       -61.4550   69.1280   -2.3530 C.3   296  ARG296      0.2205
    105  NE       -60.9200   68.1000   -1.4740 N.pl3 296  ARG296     -0.0865
    106  CZ       -61.5320   67.6580   -0.3880 C.cat 296  ARG296      0.5346
    107  NH1      -62.7110   68.1590   -0.0260 N.pl3 296  ARG296      0.1354
    108  NH2      -60.9610   66.7140    0.3360 N.pl3 296  ARG296      0.1354
    109  N        -57.9480   67.3910   -5.4560 N.am  297  LYS297     -0.1977
    110  CA       -56.6690   68.0260   -5.7420 C.3   297  LYS297      0.1596
    111  C        -56.2470   67.9820   -7.2370 C.2   297  LYS297      0.2287
    112  O        -55.5310   68.8600   -7.7060 O.2   297  LYS297     -0.2864
    113  CB       -55.5700   67.5690   -4.7670 C.3   297  LYS297      0.0298
    114  CG       -54.5760   66.5620   -5.2950 C.3   297  LYS297      0.0038
    115  CD       -54.9740   65.1350   -5.0140 C.3   297  LYS297      0.0206
    116  CE       -55.0270   64.8040   -3.5120 C.3   297  LYS297      0.1093
    117  NZ       -53.7900   65.1730   -2.7910 N.3   297  LYS297     -0.1314
@<TRIPOS>BOND
     1    92    93    1
     2    95    94    2
     3    96    97    1
     4    96    93    1
     5   112   111    2
     6    93    94    1
     7   111   110    1
     8    94    98   am
     9   101   100    2
    10   100    99    1
    11   100   109   am
    12    98    99    1
    13   110   109    1
    14   110   113    1
    15    99   102    1
    16   114   115    1
    17   114   113    1
    18   115   116    1
    19    91    89   am
    20   102   103    1
    21   103   104    1
    22    40    39    2
    23    50    49    2
    24   116   117    1
    25    30    29    2
    26    39    38    1
    27    89    88    1
    28    89    90    2
    29    49    48    1
    30    88    87    1
    31    38    37    1
    32    38    41    1
    33    29    37   am
    34    29    28    1
    35   104   105    1
    36    33    35   ar
    37    33    32   ar
    38    31    28    1
    39    31    32    1
    40    79    81   ar
    41    79    77   ar
    42    28    27    1
    43    76    77    1
    44    76    73    1
    45    81    82   ar
    46    77    78   ar
    47    35    36   ar
    48    32    34   ar
    49   105   106    2
    50    87    84    1
    51    82    80   ar
    52    48    51    1
    53    48    47    1
    54    41    42    1
    55    78    80   ar
    56    75    74    2
    57    44    42   ar
    58    44    46   ar
    59    51    52    1
    60    84    85    1
    61    84    83    1
    62    74    73    1
    63    42    43   ar
    64    73    72    1
    65   106   107    1
    66   106   108    1
    67    36    34   ar
    68    46    45   ar
    69    85    86    2
    70    52    54   ar
    71    52    53   ar
    72    43    45   ar
    73    66    65    2
    74    71    70    1
    75    69    70    1
    76    69    68    1
    77    62    60   ar
    78    58    57    2
    79    67    68    1
    80    67    64    1
    81    65    64    1
    82    26    24   ar
    83    60    61   ar
    84    60    59    1
    85    63    64    1
    86    59    56    1
    87    57    56    1
    88    22    21    2
    89    18    16   ar
    90    24    25   ar
    91    24    23    1
    92    21    20    1
    93    56    55    1
    94    20    23    1
    95    20    19    1
    96    16    15    1
    97    16    17   ar
    98    10     8   ar
    99    10     9   ar
   100    15    12    1
   101     8     6   ar
   102     9     7   ar
   103     6     7   ar
   104     6     5    1
   105    12    13    1
   106    12    11    1
   107    13    14    2
   108     5     2    1
   109     2     1    1
   110     2     3    1
   111     3     4    2
