@<TRIPOS>MOLECULE
tmp/2enxB01.pdb
 110 108 0 0 0
SMALL
GASTEIGER

@<TRIPOS>ATOM
      1  N        -45.5330   59.0600   11.2100 N.3    22  PHE22      -0.1241
      2  CA       -44.3870   59.9710   11.1650 C.3    22  PHE22       0.1605
      3  C        -43.8780   60.3540   12.5620 C.2    22  PHE22       0.2264
      4  O        -42.6630   60.4870   12.7670 O.2    22  PHE22      -0.2867
      5  CB       -44.6970   61.2060   10.3190 C.3    22  PHE22       0.0534
      6  CG       -43.4780   61.9020    9.8130 C.ar   22  PHE22      -0.0203
      7  CD1      -42.8860   61.5040    8.6150 C.ar   22  PHE22      -0.0042
      8  CD2      -42.9150   62.9620   10.5340 C.ar   22  PHE22      -0.0042
      9  CE1      -41.7400   62.1580    8.1500 C.ar   22  PHE22      -0.0003
     10  CE2      -41.7740   63.6190   10.0920 C.ar   22  PHE22      -0.0003
     11  CZ       -41.1830   63.2280    8.9060 C.ar   22  PHE22      -0.0000
     12  N        -34.5190   60.5110   14.2110 N.3    30  TRP30      -0.1241
     13  CA       -33.9390   61.8080   14.5170 C.3    30  TRP30       0.1605
     14  C        -33.9820   61.9960   16.0070 C.2    30  TRP30       0.2264
     15  O        -33.5680   63.0380   16.5080 O.2    30  TRP30      -0.2867
     16  CB       -34.7550   62.9420   13.8770 C.3    30  TRP30       0.0550
     17  CG       -35.4020   62.6130   12.5300 C.ar   30  TRP30       0.0003
     18  CD1      -36.7130   62.8490   12.1470 C.ar   30  TRP30       0.0946
     19  CD2      -34.7650   62.0000   11.4030 C.ar   30  TRP30       0.0152
     20  NE1      -36.9190   62.4100   10.8510 N.ar   30  TRP30      -0.2442
     21  CE2      -35.7450   61.8850   10.3760 C.ar   30  TRP30       0.0810
     22  CE3      -33.4690   61.5300   11.1650 C.ar   30  TRP30       0.0012
     23  CZ2      -35.4620   61.3220    9.1470 C.ar   30  TRP30       0.0191
     24  CZ3      -33.1870   60.9620    9.9580 C.ar   30  TRP30       0.0001
     25  CH2      -34.1750   60.8660    8.9510 C.ar   30  TRP30       0.0015
     26  N        -36.2840   62.8910   17.8900 N.3    32  LEU32      -0.1245
     27  CA       -37.0550   64.0710   18.3010 C.3    32  LEU32       0.1561
     28  C        -38.2180   63.6720   19.2030 C.2    32  LEU32       0.2260
     29  O        -38.7830   62.5840   19.0690 O.2    32  LEU32      -0.2867
     30  CB       -37.6630   64.8030   17.1030 C.3    32  LEU32       0.0270
     31  CG       -37.0300   65.0280   15.7330 C.3    32  LEU32       0.0019
     32  CD1      -38.0880   65.6130   14.8070 C.3    32  LEU32       0.0001
     33  CD2      -35.8330   65.9490   15.8100 C.3    32  LEU32       0.0001
     34  N        -45.0860   69.7670   13.1570 N.3    73  ILE73      -0.1245
     35  CA       -44.8620   69.1740   11.8450 C.3    73  ILE73       0.1561
     36  C        -46.1900   68.8240   11.1730 C.2    73  ILE73       0.2260
     37  O        -47.0290   68.1330   11.7600 O.2    73  ILE73      -0.2867
     38  CB       -43.8800   67.9850   11.8890 C.3    73  ILE73       0.0252
     39  CG1      -42.5050   68.4510   12.3620 C.3    73  ILE73       0.0019
     40  CG2      -43.7230   67.3860   10.5100 C.3    73  ILE73       0.0019
     41  CD1      -41.6560   67.3620   12.9150 C.3    73  ILE73       0.0001
     42  N        -41.3740   73.1840   11.6800 N.3    93  TYR93      -0.1227
     43  CA       -40.1210   72.4410   11.5540 C.3    93  TYR93       0.1740
     44  C        -40.0980   71.5770   10.2680 C.2    93  TYR93       0.2635
     45  O        -39.0290   71.3780    9.6680 O.2    93  TYR93      -0.2714
     46  CB       -39.8890   71.6110   12.8280 C.3    93  TYR93       0.0548
     47  CG       -38.6620   70.7010   12.8320 C.ar   93  TYR93      -0.0200
     48  CD1      -37.4580   71.0980   13.4380 C.ar   93  TYR93      -0.0009
     49  CD2      -38.7140   69.4280   12.2690 C.ar   93  TYR93      -0.0009
     50  CE1      -36.3420   70.2500   13.4660 C.ar   93  TYR93       0.0417
     51  CE2      -37.5930   68.5830   12.2880 C.ar   93  TYR93       0.0417
     52  CZ       -36.4220   68.9990   12.8890 C.ar   93  TYR93       0.1957
     53  OH       -35.3520   68.1400   12.8910 O.3    93  TYR93      -0.2866
     54  N        -41.2750   71.0960    9.8530 N.am   94  GLY94      -0.1718
     55  CA       -41.4060   70.1770    8.7280 C.2    94  GLY94       0.1480
     56  C        -42.7960   70.0490    8.1150 C.2    94  GLY94       0.2820
     57  O        -43.8180   70.3520    8.7390 O.2    94  GLY94      -0.2669
     58  N        -42.8120   69.6070    6.8600 N.am   95  VAL95      -0.1929
     59  CA       -44.0290   69.2660    6.1420 C.3    95  VAL95       0.1730
     60  C        -43.7820   68.0250    5.3170 C.2    95  VAL95       0.2616
     61  O        -42.7260   67.8790    4.7100 O.2    95  VAL95      -0.2715
     62  CB       -44.4370   70.3710    5.1620 C.3    95  VAL95       0.0290
     63  CG1      -45.7160   69.9920    4.4220 C.3    95  VAL95       0.0023
     64  CG2      -44.6010   71.6990    5.8840 C.3    95  VAL95       0.0023
     65  N        -44.7580   67.1310    5.2810 N.am   96  VAL96      -0.1977
     66  CA       -44.7320   66.0250    4.3440 C.3    96  VAL96       0.1596
     67  C        -46.0970   65.9780    3.6600 C.2    96  VAL96       0.2287
     68  O        -47.1090   65.7700    4.3170 O.2    96  VAL96      -0.2864
     69  CB       -44.3730   64.7090    5.0560 C.3    96  VAL96       0.0276
     70  CG1      -44.6660   63.5070    4.1790 C.3    96  VAL96       0.0022
     71  CG2      -42.9130   64.7130    5.4630 C.3    96  VAL96       0.0022
     72  N        -37.4740   71.4500    6.8890 N.3   111  TYR111     -0.1227
     73  CA       -37.6320   70.2890    6.0290 C.3   111  TYR111      0.1736
     74  C        -38.9710   70.3680    5.3060 C.2   111  TYR111      0.2595
     75  O        -39.9780   70.7700    5.9000 O.2   111  TYR111     -0.2718
     76  CB       -37.5550   68.9970    6.8410 C.3   111  TYR111      0.0548
     77  CG       -36.1700   68.6660    7.3730 C.ar  111  TYR111     -0.0200
     78  CD1      -35.2330   68.0090    6.5660 C.ar  111  TYR111     -0.0009
     79  CD2      -35.7870   69.0120    8.7030 C.ar  111  TYR111     -0.0009
     80  CE1      -33.9390   67.6940    7.0580 C.ar  111  TYR111      0.0417
     81  CE2      -34.4900   68.7080    9.2030 C.ar  111  TYR111      0.0417
     82  CZ       -33.5860   68.0520    8.3620 C.ar  111  TYR111      0.1957
     83  OH       -32.3290   67.7320    8.7930 O.3   111  TYR111     -0.2866
     84  N        -38.9720   70.0130    4.0210 N.am  112  MET112     -0.1965
     85  CA       -40.2030   69.8440    3.2510 C.3   112  MET112      0.1736
     86  C        -40.0540   68.6620    2.3060 C.2   112  MET112      0.2616
     87  O        -39.2070   68.6640    1.4160 O.2   112  MET112     -0.2715
     88  CB       -40.5270   71.0790    2.4260 C.3   112  MET112      0.0427
     89  CG       -40.8840   72.2900    3.2090 C.3   112  MET112      0.0599
     90  SD       -41.8920   73.4480    2.2730 S.3   112  MET112     -0.1393
     91  CE       -43.4790   72.6210    2.3350 C.3   112  MET112      0.0692
     92  N        -40.8850   67.6470    2.4940 N.am  113  ARG113     -0.1977
     93  CA       -40.8600   66.4790    1.6380 C.3   113  ARG113      0.1597
     94  C        -42.2330   66.3990    0.9970 C.2   113  ARG113      0.2287
     95  O        -43.2400   66.1890    1.6700 O.2   113  ARG113     -0.2864
     96  CB       -40.5080   65.2280    2.4520 C.3   113  ARG113      0.0334
     97  CG       -40.2170   63.9690    1.6620 C.3   113  ARG113      0.0492
     98  CD       -39.0640   64.1060    0.6680 C.3   113  ARG113      0.2205
     99  NE       -38.7510   62.8010    0.0980 N.pl3 113  ARG113     -0.0865
    100  CZ       -37.8960   61.9360    0.6320 C.cat 113  ARG113      0.5346
    101  NH1      -37.2360   62.2480    1.7300 N.pl3 113  ARG113      0.1354
    102  NH2      -37.6960   60.7590    0.0710 N.pl3 113  ARG113      0.1354
    103  N        -39.8590   56.7960    3.4430 N.3   127  MET127     -0.1245
    104  CA       -38.9270   57.4200    4.3790 C.3   127  MET127      0.1570
    105  C        -38.5320   56.5030    5.5390 C.2   127  MET127      0.2261
    106  O        -37.5020   56.7130    6.1610 O.2   127  MET127     -0.2867
    107  CB       -39.4740   58.7420    4.9000 C.3   127  MET127      0.0387
    108  CG       -39.3290   59.8720    3.9230 C.3   127  MET127      0.0595
    109  SD       -39.9570   61.4350    4.5440 S.3   127  MET127     -0.1393
    110  CE       -38.6200   61.9370    5.6260 C.3   127  MET127      0.0692
@<TRIPOS>BOND
     1   102   100    1
     2    99   100    2
     3    99    98    1
     4   100   101    1
     5    98    97    1
     6    94    93    1
     7    94    95    2
     8    87    86    2
     9    93    96    1
    10    93    92    1
    11    97    96    1
    12    90    91    1
    13    90    89    1
    14    86    92   am
    15    86    85    1
    16    88    89    1
    17    88    85    1
    18    85    84    1
    19   103   104    1
    20    67    68    2
    21    67    66    1
    22   108   109    1
    23   108   107    1
    24    84    74   am
    25    70    69    1
    26    66    69    1
    27    66    65    1
    28   104   107    1
    29   104   105    1
    30    63    62    1
    31   109   110    1
    32    61    60    2
    33    69    71    1
    34    62    64    1
    35    62    59    1
    36    65    60   am
    37    74    75    2
    38    74    73    1
    39    60    59    1
    40   105   106    2
    41    73    76    1
    42    73    72    1
    43    59    58    1
    44    78    80   ar
    45    78    77   ar
    46    76    77    1
    47    58    56   am
    48    80    82   ar
    49    77    79   ar
    50    56    55    1
    51    56    57    2
    52     9     7   ar
    53     9    11   ar
    54    82    83    1
    55    82    81   ar
    56     7     6   ar
    57    79    81   ar
    58    55    54    2
    59    11    10   ar
    60    25    23   ar
    61    25    24   ar
    62    23    21   ar
    63    45    44    2
    64     6     5    1
    65     6     8   ar
    66    54    44    1
    67    24    22   ar
    68    10     8   ar
    69    44    43    1
    70     5     2    1
    71    21    20   ar
    72    21    19   ar
    73    40    38    1
    74    20    18   ar
    75     2     1    1
    76     2     3    1
    77    22    19   ar
    78    36    37    2
    79    36    35    1
    80    19    17   ar
    81    43    42    1
    82    43    46    1
    83    35    38    1
    84    35    34    1
    85    38    39    1
    86    18    17   ar
    87    49    51   ar
    88    49    47   ar
    89    51    52   ar
    90    39    41    1
    91    17    16    1
    92     3     4    2
    93    46    47    1
    94    47    48   ar
    95    52    53    1
    96    52    50   ar
    97    48    50   ar
    98    16    13    1
    99    12    13    1
   100    13    14    1
   101    32    31    1
   102    31    33    1
   103    31    30    1
   104    14    15    2
   105    30    27    1
   106    26    27    1
   107    27    28    1
   108    29    28    2
