@<TRIPOS>MOLECULE
tmp/2eo5A00.pdb
 106 100 0 0 0
SMALL
GASTEIGER

@<TRIPOS>ATOM
      1  N          4.8220   61.0070   29.3830 N.3    51  ILE51      -0.1245
      2  CA         4.0180   61.2620   28.1960 C.3    51  ILE51       0.1561
      3  C          2.5560   60.8290   28.3790 C.2    51  ILE51       0.2260
      4  O          1.8800   60.4460   27.4200 O.2    51  ILE51      -0.2867
      5  CB         4.6440   60.5510   26.9670 C.3    51  ILE51       0.0252
      6  CG1        6.1230   60.9440   26.8550 C.3    51  ILE51       0.0019
      7  CG2        3.9350   60.9630   25.6960 C.3    51  ILE51       0.0019
      8  CD1        6.8870   60.2210   25.7630 C.3    51  ILE51       0.0001
      9  N         -2.6470   48.4980   25.0340 N.3   112  SER112     -0.1202
     10  CA        -1.8300   49.6730   24.7610 C.3   112  SER112      0.2020
     11  C         -2.5040   50.6090   23.7720 C.2   112  SER112      0.2619
     12  O         -3.5540   50.2960   23.2180 O.2   112  SER112     -0.2717
     13  CB        -0.4890   49.2370   24.1730 C.3   112  SER112      0.2103
     14  OG        -0.7030   48.5830   22.9300 O.3   112  SER112     -0.2182
     15  N         -1.8740   51.7580   23.5490 N.am  113  GLY113     -0.1942
     16  CA        -2.4060   52.7220   22.6080 C.3   113  GLY113      0.2014
     17  C         -2.3040   52.2020   21.1850 C.2   113  GLY113      0.2639
     18  O         -3.2090   52.4080   20.3850 O.2   113  GLY113     -0.2714
     19  N         -1.2080   51.5200   20.8570 N.am  114  THR114     -0.1950
     20  CA        -1.0660   50.9980   19.5040 C.3   114  THR114      0.1897
     21  C         -2.0970   49.8950   19.2580 C.2   114  THR114      0.2313
     22  O         -2.6280   49.7790   18.1600 O.2   114  THR114     -0.2863
     23  CB         0.3830   50.4860   19.2270 C.3   114  THR114      0.1794
     24  OG1        0.5310   50.2230   17.8260 O.3   114  THR114     -0.2208
     25  CG2        0.6820   49.2200   20.0140 C.3   114  THR114      0.0378
     26  N          1.1400   60.6040   15.0100 N.3   139  PHE139     -0.1227
     27  CA         1.7350   59.4170   15.6090 C.3   139  PHE139      0.1736
     28  C          0.6050   58.6020   16.2210 C.2   139  PHE139      0.2595
     29  O         -0.1610   59.1140   17.0380 O.2   139  PHE139     -0.2718
     30  CB         2.7450   59.7870   16.6970 C.3   139  PHE139      0.0547
     31  CG         3.4940   58.5990   17.2400 C.ar  139  PHE139     -0.0202
     32  CD1        4.6540   58.1490   16.6200 C.ar  139  PHE139     -0.0042
     33  CD2        3.0040   57.8970   18.3390 C.ar  139  PHE139     -0.0042
     34  CE1        5.3210   57.0080   17.0870 C.ar  139  PHE139     -0.0003
     35  CE2        3.6600   56.7550   18.8130 C.ar  139  PHE139     -0.0003
     36  CZ         4.8190   56.3120   18.1850 C.ar  139  PHE139     -0.0000
     37  N          0.5080   57.3350   15.8330 N.am  140  HIS140     -0.1961
     38  CA        -0.5630   56.4750   16.3240 C.3   140  HIS140      0.1787
     39  C         -0.1070   55.0990   16.7950 C.2   140  HIS140      0.2620
     40  O         -0.9360   54.2350   17.0880 O.2   140  HIS140     -0.2715
     41  CB        -1.6110   56.2960   15.2270 C.3   140  HIS140      0.0785
     42  CG        -2.2230   57.5790   14.7640 C.ar  140  HIS140      0.0821
     43  ND1       -3.0980   58.3090   15.5400 N.ar  140  HIS140     -0.2267
     44  CD2       -2.0700   58.2750   13.6120 C.ar  140  HIS140      0.1154
     45  CE1       -3.4600   59.3990   14.8860 C.ar  140  HIS140      0.1986
     46  NE2       -2.8500   59.4020   13.7130 N.ar  140  HIS140     -0.2212
     47  N          1.2000   54.8860   16.8720 N.am  141  GLY141     -0.1954
     48  CA         1.6760   53.5920   17.3220 C.3   141  GLY141      0.1869
     49  C          2.7430   52.9870   16.4350 C.2   141  GLY141      0.2309
     50  O          2.9950   53.4700   15.3310 O.2   141  GLY141     -0.2863
     51  N         -5.0370   63.3600   15.8220 N.3   219  GLU219     -0.1245
     52  CA        -4.7940   63.6090   17.2330 C.3   219  GLU219      0.1567
     53  C         -5.4180   64.9950   17.3820 C.2   219  GLU219      0.2260
     54  O         -5.2550   65.8360   16.4960 O.2   219  GLU219     -0.2867
     55  CB        -3.2970   63.6950   17.5240 C.3   219  GLU219      0.0388
     56  CG        -2.5490   62.3750   17.4560 C.3   219  GLU219      0.1160
     57  CD        -1.0520   62.5960   17.3350 C.2   219  GLU219      0.3649
     58  OE1       -0.5590   62.6950   16.1940 O.co2 219  GLU219     -0.2457
     59  OE2       -0.3740   62.6900   18.3780 O.co2 219  GLU219     -0.2457
     60  N          3.7430   63.7120   19.5110 N.3   224  GLU224     -0.1245
     61  CA         5.0980   63.5290   18.9980 C.3   224  GLU224      0.1567
     62  C          5.4360   64.6060   17.9800 C.2   224  GLU224      0.2260
     63  O          6.5990   64.9940   17.8290 O.2   224  GLU224     -0.2867
     64  CB         5.2410   62.1450   18.3570 C.3   224  GLU224      0.0388
     65  CG         5.0410   61.0230   19.3430 C.3   224  GLU224      0.1160
     66  CD         5.7910   61.2730   20.6360 C.2   224  GLU224      0.3649
     67  OE1        7.0310   61.4350   20.5750 O.co2 224  GLU224     -0.2457
     68  OE2        5.1390   61.3160   21.7060 O.co2 224  GLU224     -0.2457
     69  N         -7.6890   60.1650   18.2850 N.3   252  ASP252     -0.1239
     70  CA        -6.6740   59.4690   19.0750 C.3   252  ASP252      0.1674
     71  C         -6.2770   60.3120   20.2830 C.2   252  ASP252      0.2266
     72  O         -5.4940   61.2640   20.1660 O.2   252  ASP252     -0.2867
     73  CB        -5.4380   59.1660   18.2190 C.3   252  ASP252      0.1410
     74  CG        -4.4120   58.3210   18.9550 C.2   252  ASP252      0.3668
     75  OD1       -4.5640   58.1260   20.1780 O.co2 252  ASP252     -0.2456
     76  OD2       -3.4460   57.8560   18.3100 O.co2 252  ASP252     -0.2456
     77  N         -4.7840   59.0100   23.0360 N.3   254  VAL254     -0.1231
     78  CA        -3.8330   58.2490   23.8360 C.3   254  VAL254      0.1692
     79  C         -2.8720   59.1410   24.6240 C.2   254  VAL254      0.2591
     80  O         -2.5060   58.8120   25.7510 O.2   254  VAL254     -0.2718
     81  CB        -3.0340   57.2560   22.9480 C.3   254  VAL254      0.0266
     82  CG1       -1.8550   56.6720   23.7200 C.3   254  VAL254      0.0020
     83  CG2       -3.9660   56.1270   22.5000 C.3   254  VAL254      0.0020
     84  N         -2.4780   60.2720   24.0510 N.am  255  GLN255     -0.1979
     85  CA        -1.5560   61.1590   24.7540 C.3   255  GLN255      0.1601
     86  C         -2.1970   62.4290   25.3210 C.2   255  GLN255      0.2287
     87  O         -1.7690   62.9300   26.3620 O.2   255  GLN255     -0.2864
     88  CB        -0.3840   61.5460   23.8410 C.3   255  GLN255      0.0394
     89  CG         0.7570   62.2400   24.5860 C.3   255  GLN255      0.0908
     90  CD         1.9840   62.4820   23.7220 C.2   255  GLN255      0.2608
     91  OE1        2.2720   61.7230   22.7890 O.2   255  GLN255     -0.2717
     92  NE2        2.7280   63.5340   24.0440 N.am  255  GLN255     -0.0878
     93  N         -5.2760   55.3000   26.2750 N.3   280  ALA280     -0.1231
     94  CA        -4.2590   54.4010   26.7980 C.3   280  ALA280      0.1694
     95  C         -3.3980   55.1910   27.7760 C.2   280  ALA280      0.2591
     96  O         -3.8880   56.1130   28.4310 O.2   280  ALA280     -0.2718
     97  CB        -3.4060   53.8340   25.6620 C.3   280  ALA280      0.0304
     98  N         -2.1240   54.8270   27.8690 N.am  281  LYS281     -0.1980
     99  CA        -1.1740   55.4880   28.7590 C.3   281  LYS281      0.1596
    100  C         -1.7410   55.8710   30.1440 C.2   281  LYS281      0.2287
    101  O         -1.7350   55.0450   31.0560 O.2   281  LYS281     -0.2864
    102  CB        -0.5510   56.7010   28.0430 C.3   281  LYS281      0.0298
    103  CG         0.3440   56.3080   26.8300 C.3   281  LYS281      0.0038
    104  CD         1.3120   57.4220   26.3920 C.3   281  LYS281      0.0206
    105  CE         2.2590   57.0120   25.2220 C.3   281  LYS281      0.1093
    106  NZ         1.6050   57.0700   23.8690 N.3   281  LYS281     -0.1314
@<TRIPOS>BOND
     1    44    46   ar
     2    44    42   ar
     3    46    45   ar
     4    42    41    1
     5    42    43   ar
     6    45    43   ar
     7    26    27    1
     8    41    38    1
     9    50    49    2
    10    27    28    1
    11    27    30    1
    12    51    52    1
    13    37    28   am
    14    37    38    1
    15    58    57   ar
    16    28    29    2
    17    38    39    1
    18    49    48    1
    19    54    53    2
    20    32    34   ar
    21    32    31   ar
    22    30    31    1
    23    39    47   am
    24    39    40    2
    25    47    48    1
    26    34    36   ar
    27    52    53    1
    28    52    55    1
    29    31    33   ar
    30    57    56    1
    31    57    59   ar
    32    56    55    1
    33    24    23    1
    34    63    62    2
    35    62    61    1
    36    22    21    2
    37    36    35   ar
    38    73    74    1
    39    73    70    1
    40    69    70    1
    41    76    74   ar
    42    33    35   ar
    43    64    61    1
    44    64    65    1
    45    74    75   ar
    46    61    60    1
    47    70    71    1
    48    23    20    1
    49    23    25    1
    50    21    20    1
    51    65    66    1
    52    20    19    1
    53    72    71    2
    54    18    17    2
    55    67    66   ar
    56    66    68   ar
    57    19    17   am
    58    17    16    1
    59    83    81    1
    60    16    15    1
    61    91    90    2
    62    14    13    1
    63    81    82    1
    64    81    78    1
    65    77    78    1
    66    12    11    2
    67    15    11   am
    68    90    92   am
    69    90    89    1
    70    11    10    1
    71    78    79    1
    72    88    89    1
    73    88    85    1
    74   106   105    1
    75    84    79   am
    76    84    85    1
    77    13    10    1
    78    79    80    2
    79    85    86    1
    80    10     9    1
    81   105   104    1
    82    86    87    2
    83    97    94    1
    84     7     5    1
    85     8     6    1
    86    93    94    1
    87   104   103    1
    88    94    95    1
    89   103   102    1
    90     6     5    1
    91     5     2    1
    92     4     3    2
    93    95    98   am
    94    95    96    2
    95    98    99    1
    96   102    99    1
    97     2     3    1
    98     2     1    1
    99    99   100    1
   100   100   101    2
