@<TRIPOS>MOLECULE
tmp/2ephD00.pdb
 152 140 0 0 0
SMALL
GASTEIGER

@<TRIPOS>ATOM
      1  N         -3.7280  -25.0350   -0.7250 N.3    37  ASP37      -0.1225
      2  CA        -4.4050  -25.4670   -1.9550 C.3    37  ASP37       0.1805
      3  C         -3.4580  -26.1970   -2.9150 C.2    37  ASP37       0.2597
      4  O         -3.6290  -26.1340   -4.1340 O.2    37  ASP37      -0.2718
      5  CB        -5.0250  -24.2460   -2.6610 C.3    37  ASP37       0.1424
      6  CG        -3.9840  -23.1730   -3.0230 C.2    37  ASP37       0.3668
      7  OD1       -3.0350  -22.9540   -2.2400 O.co2  37  ASP37      -0.2456
      8  OD2       -4.1100  -22.5460   -4.0890 O.co2  37  ASP37      -0.2456
      9  N         -2.4750  -26.9040   -2.3620 N.am   38  GLU38      -0.1979
     10  CA        -1.4690  -27.5990   -3.1640 C.3    38  GLU38       0.1602
     11  C         -2.0880  -28.8010   -3.8810 C.2    38  GLU38       0.2287
     12  O         -2.8170  -29.5870   -3.2720 O.2    38  GLU38      -0.2864
     13  CB        -0.3080  -28.0730   -2.2830 C.3    38  GLU38       0.0415
     14  CG         0.4820  -26.9540   -1.5850 C.3    38  GLU38       0.1163
     15  CD        -0.0600  -26.5580   -0.1970 C.2    38  GLU38       0.3649
     16  OE1       -0.8650  -27.3080    0.3950 O.co2  38  GLU38      -0.2457
     17  OE2        0.3310  -25.4850    0.3110 O.co2  38  GLU38      -0.2457
     18  N          2.1980  -30.9780   -6.6390 N.3    42  THR42      -0.1203
     19  CA         3.0880  -30.0500   -5.9390 C.3    42  THR42       0.1994
     20  C          3.3790  -30.4380   -4.4790 C.2    42  THR42       0.2617
     21  O          4.4770  -30.1820   -3.9830 O.2    42  THR42      -0.2717
     22  CB         2.5440  -28.6010   -6.0110 C.3    42  THR42       0.1784
     23  OG1        3.4560  -27.7150   -5.3560 O.3    42  THR42      -0.2211
     24  CG2        1.1940  -28.4850   -5.3470 C.3    42  THR42       0.0376
     25  N          2.4060  -31.0530   -3.8040 N.am   43  ILE43      -0.1979
     26  CA         2.5890  -31.5530   -2.4250 C.3    43  ILE43       0.1595
     27  C          3.4930  -32.7970   -2.3900 C.2    43  ILE43       0.2287
     28  O          4.0960  -33.1160   -1.3650 O.2    43  ILE43      -0.2864
     29  CB         1.2210  -31.8700   -1.7410 C.3    43  ILE43       0.0276
     30  CG1        1.3270  -31.7390   -0.2170 C.3    43  ILE43       0.0022
     31  CG2        0.7150  -33.2540   -2.1270 C.3    43  ILE43       0.0022
     32  CD1        1.2370  -30.3160    0.2800 C.3    43  ILE43       0.0001
     33  N          6.2840  -32.9340   -3.9900 N.3    45  LYS45      -0.1231
     34  CA         7.6310  -32.3600   -3.8820 C.3    45  LYS45       0.1693
     35  C          7.9670  -31.9640   -2.4400 C.2    45  LYS45       0.2591
     36  O          9.1100  -32.1140   -2.0010 O.2    45  LYS45      -0.2718
     37  CB         7.7590  -31.1380   -4.8090 C.3    45  LYS45       0.0285
     38  CG         9.1450  -30.9330   -5.4490 C.3    45  LYS45       0.0035
     39  CD        10.1190  -30.1680   -4.5530 C.3    45  LYS45       0.0206
     40  CE        11.2370  -29.5230   -5.3720 C.3    45  LYS45       0.1093
     41  NZ        12.2620  -28.8650   -4.5060 N.3    45  LYS45      -0.1314
     42  N          6.9650  -31.4690   -1.7110 N.am   46  ARG46      -0.1980
     43  CA         7.1430  -31.0590   -0.3180 C.3    46  ARG46       0.1597
     44  C          7.2660  -32.2760    0.5860 C.2    46  ARG46       0.2287
     45  O          8.0010  -32.2570    1.5790 O.2    46  ARG46      -0.2864
     46  CB         5.9770  -30.1740    0.1490 C.3    46  ARG46       0.0334
     47  CG         5.6580  -28.9880   -0.7670 C.3    46  ARG46       0.0492
     48  CD         6.8930  -28.1520   -1.0690 C.3    46  ARG46       0.2205
     49  NE         6.9450  -27.7530   -2.4720 N.pl3  46  ARG46      -0.0865
     50  CZ         8.0540  -27.4010   -3.1260 C.cat  46  ARG46       0.5346
     51  NH1        9.2430  -27.3850   -2.5170 N.pl3  46  ARG46       0.1354
     52  NH2        7.9770  -27.0660   -4.4120 N.pl3  46  ARG46       0.1354
     53  N         -1.7900  -34.4210    7.0730 N.3    62  TYR62      -0.1241
     54  CA        -1.1160  -33.1230    7.0610 C.3    62  TYR62       0.1605
     55  C         -2.1010  -31.9580    7.0920 C.2    62  TYR62       0.2264
     56  O         -1.8790  -30.9740    7.7940 O.2    62  TYR62      -0.2867
     57  CB        -0.2200  -32.9910    5.8290 C.3    62  TYR62       0.0534
     58  CG         0.4250  -31.6250    5.6920 C.ar   62  TYR62      -0.0201
     59  CD1        1.2200  -31.1040    6.7130 C.ar   62  TYR62      -0.0009
     60  CD2        0.2440  -30.8530    4.5440 C.ar   62  TYR62      -0.0009
     61  CE1        1.8140  -29.8520    6.5960 C.ar   62  TYR62       0.0417
     62  CE2        0.8390  -29.6010    4.4210 C.ar   62  TYR62       0.0417
     63  CZ         1.6190  -29.1110    5.4500 C.ar   62  TYR62       0.1957
     64  OH         2.2090  -27.8830    5.3340 O.3    62  TYR62      -0.2866
     65  N         -9.4300  -23.6170   -4.7820 N.3   110  LYS110     -0.1245
     66  CA        -8.7050  -23.3340   -6.0260 C.3   110  LYS110      0.1561
     67  C         -9.5130  -23.8490   -7.2090 C.2   110  LYS110      0.2260
     68  O         -9.8600  -25.0270   -7.2620 O.2   110  LYS110     -0.2867
     69  CB        -7.3450  -24.0420   -6.0310 C.3   110  LYS110      0.0271
     70  CG        -6.4280  -23.6610   -7.2130 C.3   110  LYS110      0.0035
     71  CD        -5.7800  -24.8720   -7.8990 C.3   110  LYS110      0.0206
     72  CE        -4.8170  -25.6520   -6.9940 C.3   110  LYS110      0.1093
     73  NZ        -3.5600  -24.9080   -6.6130 N.3   110  LYS110     -0.1314
     74  N         -9.9990  -19.0660   -5.7830 N.3   149  LYS149     -0.1245
     75  CA        -8.6720  -18.5980   -6.1730 C.3   149  LYS149      0.1561
     76  C         -8.3350  -19.0550   -7.5880 C.2   149  LYS149      0.2260
     77  O         -8.5390  -20.2130   -7.9390 O.2   149  LYS149     -0.2867
     78  CB        -7.6080  -19.1220   -5.2110 C.3   149  LYS149      0.0271
     79  CG        -6.1660  -18.7530   -5.5850 C.3   149  LYS149      0.0035
     80  CD        -5.2490  -19.9460   -5.3890 C.3   149  LYS149      0.0206
     81  CE        -3.8210  -19.6670   -5.8020 C.3   149  LYS149      0.1093
     82  NZ        -3.0030  -20.9260   -5.8390 N.3   149  LYS149     -0.1314
     83  N         -5.0060  -18.5220  -10.2630 N.3   151  ARG151     -0.1245
     84  CA        -3.6450  -17.9990  -10.4110 C.3   151  ARG151      0.1563
     85  C         -3.2200  -17.8080  -11.8700 C.2   151  ARG151      0.2260
     86  O         -3.2660  -18.7450  -12.6740 O.2   151  ARG151     -0.2867
     87  CB        -2.6460  -18.9300   -9.7140 C.3   151  ARG151      0.0307
     88  CG        -1.1910  -18.6030   -9.9950 C.3   151  ARG151      0.0489
     89  CD        -0.2950  -19.3510   -9.0570 C.3   151  ARG151      0.2205
     90  NE         1.1140  -18.9980   -9.1970 N.pl3 151  ARG151     -0.0865
     91  CZ         1.9450  -19.5380  -10.0840 C.cat 151  ARG151      0.5346
     92  NH1        1.5220  -20.4610  -10.9540 N.pl3 151  ARG151      0.1354
     93  NH2        3.2130  -19.1470  -10.1080 N.pl3 151  ARG151      0.1354
     94  N         -5.6420  -13.1640   -8.7700 N.3   192  GLU192     -0.1245
     95  CA        -4.1890  -13.3150   -8.5910 C.3   192  GLU192      0.1567
     96  C         -3.3960  -13.1840   -9.8970 C.2   192  GLU192      0.2260
     97  O         -3.2090  -14.1760  -10.6120 O.2   192  GLU192     -0.2867
     98  CB        -3.8740  -14.6780   -7.9390 C.3   192  GLU192      0.0388
     99  CG        -2.3730  -14.9280   -7.6780 C.3   192  GLU192      0.1160
    100  CD        -2.0980  -16.2270   -6.9450 C.2   192  GLU192      0.3649
    101  OE1       -3.0780  -16.9440   -6.6260 O.co2 192  GLU192     -0.2457
    102  OE2       -0.8990  -16.5290   -6.6860 O.co2 192  GLU192     -0.2457
    103  N          0.0470  -12.8510  -10.5420 N.3   194  GLU194     -0.1245
    104  CA         1.4100  -12.8870  -10.0270 C.3   194  GLU194      0.1567
    105  C          2.4120  -12.5240  -11.1010 C.2   194  GLU194      0.2260
    106  O          2.5180  -13.2090  -12.1140 O.2   194  GLU194     -0.2867
    107  CB         1.7810  -14.2640   -9.4740 C.3   194  GLU194      0.0388
    108  CG         3.2560  -14.3500   -9.0600 C.3   194  GLU194      0.1160
    109  CD         3.6120  -15.5900   -8.2700 C.2   194  GLU194      0.3649
    110  OE1        2.7510  -16.4850   -8.1350 O.co2 194  GLU194     -0.2457
    111  OE2        4.7610  -15.6640   -7.7810 O.co2 194  GLU194     -0.2457
    112  N          5.5620  -15.3070   -3.0320 N.3   277  GLY277     -0.1210
    113  CA         6.5060  -15.7070   -4.0750 C.3   277  GLY277      0.1956
    114  C          7.5260  -16.6790   -3.5030 C.2   277  GLY277      0.2612
    115  O          7.1670  -17.6240   -2.7890 O.2   277  GLY277     -0.2717
    116  N          8.8000  -16.4340   -3.7950 N.am  278  GLY278     -0.1956
    117  CA         9.8900  -17.2630   -3.2800 C.3   278  GLY278      0.1869
    118  C         10.6020  -16.6440   -2.0930 C.2   278  GLY278      0.2309
    119  O         11.7870  -16.9040   -1.8690 O.2   278  GLY278     -0.2863
    120  N          3.6020  -21.6290    1.3950 N.3   307  ARG307     -0.1245
    121  CA         4.9960  -21.9070    1.7370 C.3   307  ARG307      0.1563
    122  C          5.4570  -21.1220    2.9740 C.2   307  ARG307      0.2260
    123  O          5.9650  -21.7100    3.9270 O.2   307  ARG307     -0.2867
    124  CB         5.9000  -21.5750    0.5530 C.3   307  ARG307      0.0307
    125  CG         7.3660  -21.5370    0.8970 C.3   307  ARG307      0.0489
    126  CD         8.2080  -21.1320   -0.2800 C.3   307  ARG307      0.2205
    127  NE         9.5270  -20.6770    0.1570 N.pl3 307  ARG307     -0.0865
    128  CZ        10.5230  -20.3440   -0.6610 C.cat 307  ARG307      0.5346
    129  NH1       10.3670  -20.4160   -1.9810 N.pl3 307  ARG307      0.1354
    130  NH2       11.6840  -19.9380   -0.1540 N.pl3 307  ARG307      0.1354
    131  N          4.0060  -22.7090    5.9200 N.3   310  GLN310     -0.1231
    132  CA         4.0800  -24.1690    6.0440 C.3   310  GLN310      0.1698
    133  C          5.4970  -24.7380    6.0730 C.2   310  GLN310      0.2592
    134  O          5.7120  -25.8120    6.6350 O.2   310  GLN310     -0.2718
    135  CB         3.2990  -24.8270    4.9040 C.3   310  GLN310      0.0381
    136  CG         1.7850  -24.7250    5.0480 C.3   310  GLN310      0.0905
    137  CD         1.0540  -25.2240    3.8150 C.2   310  GLN310      0.2608
    138  OE1        1.2570  -26.3590    3.3730 O.2   310  GLN310     -0.2717
    139  NE2        0.2000  -24.3750    3.2480 N.am  310  GLN310     -0.0878
    140  N          6.4520  -24.0280    5.4700 N.am  311  ALA311     -0.1980
    141  CA         7.8240  -24.5300    5.2960 C.3   311  ALA311      0.1597
    142  C          8.3880  -25.1890    6.5610 C.2   311  ALA311      0.2287
    143  O          8.7920  -26.3530    6.5390 O.2   311  ALA311     -0.2864
    144  CB         8.7440  -23.4070    4.8230 C.3   311  ALA311      0.0319
    145  N          6.1480  -28.0610    8.0780 N.3   314  LEU314     -0.1245
    146  CA         6.3800  -29.3330    7.3940 C.3   314  LEU314      0.1561
    147  C          7.6840  -29.9890    7.8460 C.2   314  LEU314      0.2260
    148  O          7.6990  -31.1510    8.2690 O.2   314  LEU314     -0.2867
    149  CB         6.4220  -29.1120    5.8810 C.3   314  LEU314      0.0270
    150  CG         6.1200  -30.3500    5.0410 C.3   314  LEU314      0.0019
    151  CD1        4.6120  -30.5610    4.9670 C.3   314  LEU314      0.0001
    152  CD2        6.7210  -30.2240    3.6480 C.3   314  LEU314      0.0001
@<TRIPOS>BOND
     1    86    85    2
     2   106   105    2
     3    85    84    1
     4   105   104    1
     5    92    91    1
     6    97    96    2
     7   103   104    1
     8    84    83    1
     9    84    87    1
    10    93    91    1
    11    91    90    2
    12   104   107    1
    13    88    87    1
    14    88    89    1
    15    96    95    1
    16   107   108    1
    17    90    89    1
    18   108   109    1
    19    94    95    1
    20    95    98    1
    21   109   110   ar
    22   109   111   ar
    23    77    76    2
    24    98    99    1
    25    71    70    1
    26    71    72    1
    27    99   100    1
    28    76    75    1
    29    68    67    2
    30    70    69    1
    31    67    66    1
    32    72    73    1
    33   100   102   ar
    34   100   101   ar
    35    18    19    1
    36    75    74    1
    37    75    78    1
    38    69    66    1
    39    66    65    1
    40    22    19    1
    41    22    23    1
    42    22    24    1
    43    19    20    1
    44    82    81    1
    45    81    80    1
    46    79    80    1
    47    79    78    1
    48    38    37    1
    49    38    39    1
    50    40    39    1
    51    40    41    1
    52    37    34    1
    53    20    21    2
    54    20    25   am
    55    52    50    1
    56     4     3    2
    57     8     6   ar
    58   113   114    1
    59   113   112    1
    60    33    34    1
    61    34    35    1
    62    11    12    2
    63    11    10    1
    64    25    26    1
    65   116   114   am
    66   116   117    1
    67   114   115    2
    68   117   118    1
    69    10     9    1
    70    10    13    1
    71    50    51    1
    72    50    49    2
    73     6     5    1
    74     6     7   ar
    75     3     9   am
    76     3     2    1
    77     5     2    1
    78    49    48    1
    79    35    36    2
    80    35    42   am
    81    26    27    1
    82    26    29    1
    83    27    28    2
    84    13    14    1
    85    31    29    1
    86   118   119    2
    87   129   128    1
    88     2     1    1
    89    29    30    1
    90    42    43    1
    91    14    15    1
    92    48    47    1
    93    47    46    1
    94   128   130    1
    95   128   127    2
    96    43    46    1
    97    43    44    1
    98   126   127    1
    99   126   125    1
   100    30    32    1
   101    15    17   ar
   102    15    16   ar
   103   124   125    1
   104   124   121    1
   105    44    45    2
   106   120   121    1
   107   121   122    1
   108   122   123    2
   109   139   137   am
   110   138   137    2
   111   152   150    1
   112   137   136    1
   113    62    60   ar
   114    62    63   ar
   115    60    58   ar
   116   144   141    1
   117   135   136    1
   118   135   132    1
   119   151   150    1
   120   150   149    1
   121   141   140    1
   122   141   142    1
   123    64    63    1
   124    63    61   ar
   125   140   133   am
   126    58    57    1
   127    58    59   ar
   128    57    54    1
   129   149   146    1
   130   131   132    1
   131   132   133    1
   132   133   134    2
   133   143   142    2
   134    61    59   ar
   135    54    53    1
   136    54    55    1
   137    55    56    2
   138   146   147    1
   139   146   145    1
   140   147   148    2
