@<TRIPOS>MOLECULE
tmp/2epnA00.pdb
 138 140 0 0 0
SMALL
GASTEIGER

@<TRIPOS>ATOM
      1  N         31.1770   15.8000   42.0590 N.3    91  ARG91      -0.1245
      2  CA        30.3640   16.4780   41.0770 C.3    91  ARG91       0.1563
      3  C         30.6500   17.9870   41.0060 C.2    91  ARG91       0.2260
      4  O         29.8530   18.7530   40.4280 O.2    91  ARG91      -0.2867
      5  CB        28.9060   16.1660   41.3840 C.3    91  ARG91       0.0307
      6  CG        28.3830   14.9630   40.6150 C.3    91  ARG91       0.0489
      7  CD        29.3150   13.7200   40.6170 C.3    91  ARG91       0.2205
      8  NE        28.7840   12.7440   39.6550 N.pl3  91  ARG91      -0.0865
      9  CZ        27.9470   11.7530   39.9490 C.cat  91  ARG91       0.5346
     10  NH1       27.5640   11.5150   41.1830 N.pl3  91  ARG91       0.1354
     11  NH2       27.4780   10.9800   38.9880 N.pl3  91  ARG91       0.1354
     12  N         32.0120   10.4940   48.6770 N.3   118  TYR118     -0.1241
     13  CA        32.1070    9.9040   47.3440 C.3   118  TYR118      0.1605
     14  C         33.1420   10.6890   46.5500 C.2   118  TYR118      0.2264
     15  O         32.9380   11.8670   46.2090 O.2   118  TYR118     -0.2867
     16  CB        30.7310    9.9020   46.6360 C.3   118  TYR118      0.0534
     17  CG        30.7960    9.4090   45.1990 C.ar  118  TYR118     -0.0201
     18  CD1       30.6730   10.2940   44.1220 C.ar  118  TYR118     -0.0009
     19  CD2       31.0120    8.0840   44.9110 C.ar  118  TYR118     -0.0009
     20  CE1       30.7250    9.8700   42.8080 C.ar  118  TYR118      0.0417
     21  CE2       31.0710    7.6330   43.6130 C.ar  118  TYR118      0.0417
     22  CZ        30.9210    8.5400   42.5460 C.ar  118  TYR118      0.1957
     23  OH        30.9650    8.1250   41.2250 O.3   118  TYR118     -0.2866
     24  N         33.0540    5.9820   36.0680 N.3   166  HIS166     -0.1241
     25  CA        32.8360    7.2520   36.7270 C.3   166  HIS166      0.1621
     26  C         34.1680    7.9420   37.0640 C.2   166  HIS166      0.2264
     27  O         34.3490    8.5160   38.1390 O.2   166  HIS166     -0.2867
     28  CB        31.9440    7.0920   37.9590 C.3   166  HIS166      0.0745
     29  CG        30.4810    7.0130   37.6470 C.ar  166  HIS166      0.0817
     30  ND1       29.7570    8.1160   37.2310 N.ar  166  HIS166     -0.2268
     31  CD2       29.6110    5.9770   37.6980 C.ar  166  HIS166      0.1154
     32  CE1       28.4980    7.7520   37.0470 C.ar  166  HIS166      0.1986
     33  NE2       28.3780    6.4670   37.3380 N.ar  166  HIS166     -0.2212
     34  N         29.8000    0.7770   39.6780 N.3   219  ASP219     -0.1225
     35  CA        28.5400    1.0930   38.9870 C.3   219  ASP219      0.1805
     36  C         28.7410    1.5980   37.5500 C.2   219  ASP219      0.2597
     37  O         29.7730    2.1950   37.2320 O.2   219  ASP219     -0.2718
     38  CB        27.7350    2.1430   39.7430 C.3   219  ASP219      0.1424
     39  CG        28.4770    3.4500   39.8950 C.2   219  ASP219      0.3668
     40  OD1       29.6710    3.3940   40.2590 O.co2 219  ASP219     -0.2456
     41  OD2       27.8920    4.5390   39.6730 O.co2 219  ASP219     -0.2456
     42  N         27.7270    1.3740   36.7100 N.am  220  GLU220     -0.1979
     43  CA        27.5370    2.1520   35.4900 C.3   220  GLU220      0.1602
     44  C         28.7560    2.1530   34.5720 C.2   220  GLU220      0.2287
     45  O         29.1690    3.2090   34.0650 O.2   220  GLU220     -0.2864
     46  CB        27.0390    3.5600   35.8410 C.3   220  GLU220      0.0415
     47  CG        25.5870    3.5260   36.3760 C.3   220  GLU220      0.1163
     48  CD        25.0160    4.8860   36.7930 C.2   220  GLU220      0.3649
     49  OE1       25.7790    5.8730   36.9870 O.co2 220  GLU220     -0.2457
     50  OE2       23.7700    4.9310   36.9430 O.co2 220  GLU220     -0.2457
     51  N         28.6790   -1.0390   44.4100 N.3   263  TRP263     -0.1241
     52  CA        27.3450   -0.8640   43.8140 C.3   263  TRP263      0.1605
     53  C         27.0410   -2.1040   43.0020 C.2   263  TRP263      0.2264
     54  O         27.8980   -2.6550   42.3110 O.2   263  TRP263     -0.2867
     55  CB        27.3190    0.3900   42.9130 C.3   263  TRP263      0.0550
     56  CG        27.8150    1.6420   43.5850 C.ar  263  TRP263      0.0003
     57  CD1       28.9020    2.3680   43.2460 C.ar  263  TRP263      0.0946
     58  CD2       27.2480    2.2950   44.7230 C.ar  263  TRP263      0.0152
     59  NE1       29.0470    3.4470   44.0850 N.ar  263  TRP263     -0.2442
     60  CE2       28.0260    3.4300   44.9960 C.ar  263  TRP263      0.0810
     61  CE3       26.1270    2.0520   45.5130 C.ar  263  TRP263      0.0012
     62  CZ2       27.7560    4.2820   46.0630 C.ar  263  TRP263      0.0191
     63  CZ3       25.8600    2.9070   46.5510 C.ar  263  TRP263      0.0001
     64  CH2       26.6600    4.0060   46.8200 C.ar  263  TRP263      0.0015
     65  N         21.0780   -0.0170   45.1390 N.3   303  TRP303     -0.1241
     66  CA        20.7010    1.3920   45.1830 C.3   303  TRP303      0.1605
     67  C         19.4410    1.6680   44.3700 C.2   303  TRP303      0.2264
     68  O         19.3070    1.1950   43.2550 O.2   303  TRP303     -0.2867
     69  CB        21.8790    2.2610   44.6870 C.3   303  TRP303      0.0550
     70  CG        22.3800    1.9910   43.3140 C.ar  303  TRP303      0.0003
     71  CD1       23.4000    1.1530   42.9720 C.ar  303  TRP303      0.0946
     72  CD2       21.9530    2.6180   42.0880 C.ar  303  TRP303      0.0152
     73  NE1       23.6290    1.2050   41.6290 N.ar  303  TRP303     -0.2442
     74  CE2       22.7660    2.1090   41.0580 C.ar  303  TRP303      0.0810
     75  CE3       20.9760    3.5610   41.7650 C.ar  303  TRP303      0.0012
     76  CZ2       22.6000    2.4820   39.7270 C.ar  303  TRP303      0.0191
     77  CZ3       20.8370    3.9580   40.4520 C.ar  303  TRP303      0.0001
     78  CH2       21.6460    3.4280   39.4530 C.ar  303  TRP303      0.0015
     79  N         16.3520    4.9410   44.2630 N.3   305  TYR305     -0.1227
     80  CA        15.8400    6.2050   44.8090 C.3   305  TYR305      0.1736
     81  C         14.4590    6.5320   44.2860 C.2   305  TYR305      0.2595
     82  O         13.9760    7.6470   44.5080 O.2   305  TYR305     -0.2718
     83  CB        16.7740    7.3320   44.3820 C.3   305  TYR305      0.0548
     84  CG        18.1980    6.9550   44.6030 C.ar  305  TYR305     -0.0200
     85  CD1       18.6370    6.6230   45.8670 C.ar  305  TYR305     -0.0009
     86  CD2       19.0960    6.9200   43.5680 C.ar  305  TYR305     -0.0009
     87  CE1       19.9410    6.2610   46.1130 C.ar  305  TYR305      0.0417
     88  CE2       20.4000    6.5570   43.7990 C.ar  305  TYR305      0.0417
     89  CZ        20.8160    6.2320   45.0770 C.ar  305  TYR305      0.1957
     90  OH        22.1190    5.8480   45.3410 O.3   305  TYR305     -0.2866
     91  N         13.8340    5.5540   43.6190 N.am  306  TYR306     -0.1976
     92  CA        12.7200    5.8440   42.6970 C.3   306  TYR306      0.1639
     93  C         11.3640    5.2180   43.0010 C.2   306  TYR306      0.2290
     94  O         10.3620    5.7590   42.5370 O.2   306  TYR306     -0.2864
     95  CB        13.1180    5.4670   41.2560 C.3   306  TYR306      0.0560
     96  CG        14.5370    5.8870   40.8930 C.ar  306  TYR306     -0.0198
     97  CD1       14.8390    7.2130   40.5800 C.ar  306  TYR306     -0.0009
     98  CD2       15.5740    4.9470   40.8830 C.ar  306  TYR306     -0.0009
     99  CE1       16.1370    7.6020   40.2590 C.ar  306  TYR306      0.0417
    100  CE2       16.8730    5.3380   40.5820 C.ar  306  TYR306      0.0417
    101  CZ        17.1440    6.6580   40.2490 C.ar  306  TYR306      0.1957
    102  OH        18.4620    6.9950   39.9550 O.3   306  TYR306     -0.2866
    103  N         20.4400   16.1700   43.8870 N.3   336  TRP336     -0.1241
    104  CA        21.1860   16.0860   42.6290 C.3   336  TRP336      0.1605
    105  C         20.4110   16.5550   41.4030 C.2   336  TRP336      0.2264
    106  O         20.7670   16.1740   40.3000 O.2   336  TRP336     -0.2867
    107  CB        21.6720   14.6500   42.4240 C.3   336  TRP336      0.0550
    108  CG        20.6290   13.5900   42.3680 C.ar  336  TRP336      0.0003
    109  CD1       19.9090   13.1880   41.2690 C.ar  336  TRP336      0.0946
    110  CD2       20.2590   12.7080   43.4410 C.ar  336  TRP336      0.0152
    111  NE1       19.0800   12.1290   41.6150 N.ar  336  TRP336     -0.2442
    112  CE2       19.2760   11.8200   42.9370 C.ar  336  TRP336      0.0810
    113  CE3       20.6460   12.5930   44.7770 C.ar  336  TRP336      0.0012
    114  CZ2       18.7010   10.8220   43.7350 C.ar  336  TRP336      0.0191
    115  CZ3       20.0520   11.5990   45.5770 C.ar  336  TRP336      0.0001
    116  CH2       19.0970   10.7310   45.0390 C.ar  336  TRP336      0.0015
    117  N         23.8880   12.4450   46.3080 N.3   370  TRP370     -0.1241
    118  CA        24.5820   12.7570   45.0470 C.3   370  TRP370      0.1605
    119  C         24.4870   14.2470   44.6630 C.2   370  TRP370      0.2264
    120  O         23.6240   14.9740   45.1550 O.2   370  TRP370     -0.2867
    121  CB        24.0720   11.8930   43.9220 C.3   370  TRP370      0.0550
    122  CG        24.0730   10.4480   44.2170 C.ar  370  TRP370      0.0003
    123  CD1       23.0000    9.6650   44.5540 C.ar  370  TRP370      0.0946
    124  CD2       25.2160    9.5700   44.1770 C.ar  370  TRP370      0.0152
    125  NE1       23.4120    8.3710   44.7340 N.ar  370  TRP370     -0.2442
    126  CE2       24.7610    8.2830   44.4890 C.ar  370  TRP370      0.0810
    127  CE3       26.5760    9.7560   43.8950 C.ar  370  TRP370      0.0012
    128  CZ2       25.6100    7.1860   44.5260 C.ar  370  TRP370      0.0191
    129  CZ3       27.4110    8.6630   43.9420 C.ar  370  TRP370      0.0001
    130  CH2       26.9400    7.4010   44.2290 C.ar  370  TRP370      0.0015
    131  N         24.7980   15.3420   41.0460 N.3   372  ASP372     -0.1239
    132  CA        24.8580   15.2510   39.5750 C.3   372  ASP372      0.1674
    133  C         25.0530   16.5590   38.8020 C.2   372  ASP372      0.2266
    134  O         24.2780   17.5270   38.9480 O.2   372  ASP372     -0.2867
    135  CB        23.5810   14.6170   38.9850 C.3   372  ASP372      0.1410
    136  CG        23.3160   13.2100   39.4690 C.2   372  ASP372      0.3668
    137  OD1       22.3770   12.6020   38.9110 O.co2 372  ASP372     -0.2456
    138  OD2       23.9980   12.7230   40.3930 O.co2 372  ASP372     -0.2456
@<TRIPOS>BOND
     1    45    44    2
     2    44    43    1
     3    43    46    1
     4    43    42    1
     5    46    47    1
     6    24    25    1
     7    47    48    1
     8    42    36   am
     9    25    26    1
    10    25    28    1
    11    48    50   ar
    12    48    49   ar
    13    32    30   ar
    14    32    33   ar
    15    26    27    2
    16    30    29   ar
    17    37    36    2
    18    33    31   ar
    19    36    35    1
    20    29    31   ar
    21    29    28    1
    22   133   134    2
    23   133   132    1
    24   137   136   ar
    25   135   136    1
    26   135   132    1
    27    35    34    1
    28    35    38    1
    29    11     9    1
    30    78    76   ar
    31    78    77   ar
    32   136   138   ar
    33   132   131    1
    34     8     9    2
    35     8     7    1
    36    41    39   ar
    37    76    74   ar
    38    38    39    1
    39    39    40   ar
    40     9    10    1
    41   102   101    1
    42   101    99   ar
    43   101   100   ar
    44    99    97   ar
    45   106   105    2
    46     4     3    2
    47    77    75   ar
    48    97    96   ar
    49   100    98   ar
    50     6     7    1
    51     6     5    1
    52    98    96   ar
    53    96    95    1
    54     3     2    1
    55    74    73   ar
    56    74    72   ar
    57     2     5    1
    58     2     1    1
    59    23    22    1
    60    95    92    1
    61   109   111   ar
    62   109   108   ar
    63   105   104    1
    64   111   112   ar
    65    73    71   ar
    66    75    72   ar
    67    72    70   ar
    68    54    53    2
    69   108   107    1
    70   108   110   ar
    71   107   104    1
    72    94    93    2
    73    22    20   ar
    74    22    21   ar
    75   104   103    1
    76    92    93    1
    77    92    91    1
    78    20    18   ar
    79    55    56    1
    80    55    52    1
    81   112   110   ar
    82   112   114   ar
    83    71    70   ar
    84    53    52    1
    85    57    56   ar
    86    57    59   ar
    87    68    67    2
    88    70    69    1
    89   110   113   ar
    90    86    88   ar
    91    86    84   ar
    92    56    58   ar
    93    21    19   ar
    94    91    81   am
    95   114   116   ar
    96    88    89   ar
    97    52    51    1
    98   127   129   ar
    99   127   124   ar
   100   121   122    1
   101   121   118    1
   102   129   130   ar
   103    59    60   ar
   104    18    17   ar
   105   124   122   ar
   106   124   126   ar
   107   122   123   ar
   108   130   128   ar
   109    79    80    1
   110    81    82    2
   111    81    80    1
   112    67    66    1
   113    83    84    1
   114    83    80    1
   115   126   128   ar
   116   126   125   ar
   117   123   125   ar
   118    84    85   ar
   119   119   118    1
   120   119   120    2
   121    69    66    1
   122    58    60   ar
   123    58    61   ar
   124   113   115   ar
   125    19    17   ar
   126    60    62   ar
   127   116   115   ar
   128   118   117    1
   129    89    90    1
   130    89    87   ar
   131    65    66    1
   132    17    16    1
   133    61    63   ar
   134    85    87   ar
   135    62    64   ar
   136    15    14    2
   137    14    13    1
   138    63    64   ar
   139    16    13    1
   140    13    12    1
