@<TRIPOS>MOLECULE
tmp/2eqaA00.pdb
 152 142 0 0 0
SMALL
GASTEIGER

@<TRIPOS>ATOM
      1  N          6.1430   24.4230   13.4980 N.3    36  VAL36      -0.1245
      2  CA         7.0710   24.6580   14.6060 C.3    36  VAL36       0.1561
      3  C          7.6150   23.2960   15.0420 C.2    36  VAL36       0.2260
      4  O          7.0970   22.2660   14.6260 O.2    36  VAL36      -0.2867
      5  CB         6.3740   25.3340   15.8150 C.3    36  VAL36       0.0252
      6  CG1        5.7500   26.6600   15.3830 C.3    36  VAL36       0.0019
      7  CG2        5.3160   24.4160   16.4000 C.3    36  VAL36       0.0019
      8  N          3.5750   20.8090   31.0600 N.3    58  ARG58      -0.1245
      9  CA         2.3270   21.2080   30.4390 C.3    58  ARG58       0.1563
     10  C          1.1380   20.7340   31.2590 C.2    58  ARG58       0.2260
     11  O          1.1470   19.6220   31.7810 O.2    58  ARG58      -0.2867
     12  CB         2.2830   20.5860   29.0400 C.3    58  ARG58       0.0307
     13  CG         1.0310   20.7990   28.2140 C.3    58  ARG58       0.0489
     14  CD         1.1570   19.9400   26.9600 C.3    58  ARG58       0.2205
     15  NE         0.0660   20.0810   25.9970 N.pl3  58  ARG58      -0.0865
     16  CZ        -0.0240   21.0430   25.0840 C.cat  58  ARG58       0.5346
     17  NH1        0.9110   21.9870   24.9990 N.pl3  58  ARG58       0.1354
     18  NH2       -1.0330   21.0370   24.2190 N.pl3  58  ARG58       0.1354
     19  N         -4.3530   19.7900   28.4790 N.3    62  ASN62      -0.1226
     20  CA        -4.1430   20.4480   27.1930 C.3    62  ASN62       0.1770
     21  C         -3.6890   19.3200   26.2550 C.2    62  ASN62       0.2439
     22  O         -2.5410   18.8720   26.3100 O.2    62  ASN62      -0.2733
     23  CB        -3.0710   21.5300   27.3180 C.3    62  ASN62       0.1168
     24  CG        -3.0390   22.4480   26.1170 C.2    62  ASN62       0.2627
     25  OD1       -3.7590   22.2270   25.1430 O.2    62  ASN62      -0.2716
     26  ND2       -2.2060   23.4840   26.1760 N.am   62  ASN62      -0.0877
     27  N         -4.6000   18.8450   25.3900 N.am   63  PRO63      -0.2718
     28  CA        -4.4020   17.7650   24.4190 C.3    63  PRO63       0.1535
     29  C         -3.2880   17.9410   23.3950 C.2    63  PRO63       0.2598
     30  O         -2.8460   19.0500   23.1130 O.2    63  PRO63      -0.2715
     31  CB        -5.7740   17.6410   23.7710 C.3    63  PRO63       0.0310
     32  CG        -6.2460   19.0460   23.7520 C.3    63  PRO63       0.0237
     33  CD        -5.8920   19.5190   25.1460 C.3    63  PRO63       0.0939
     34  N         -2.8640   16.8170   22.8330 N.am   64  LEU64      -0.1964
     35  CA        -1.7910   16.7920   21.8450 C.3    64  LEU64       0.1728
     36  C         -2.3450   16.5940   20.4400 C.2    64  LEU64       0.2616
     37  O         -3.5230   16.2830   20.2610 O.2    64  LEU64      -0.2715
     38  CB        -0.8340   15.6410   22.1630 C.3    64  LEU64       0.0311
     39  CG        -0.3240   15.5280   23.6030 C.3    64  LEU64       0.0022
     40  CD1        0.6670   14.3720   23.7000 C.3    64  LEU64       0.0001
     41  CD2        0.3400   16.8340   24.0260 C.3    64  LEU64       0.0001
     42  N         -1.4880   16.7810   19.4420 N.am   65  ILE65      -0.1977
     43  CA        -1.8900   16.5670   18.0560 C.3    65  ILE65       0.1596
     44  C         -1.1930   15.2960   17.5960 C.2    65  ILE65       0.2287
     45  O          0.0110   15.1260   17.8000 O.2    65  ILE65      -0.2864
     46  CB        -1.4750   17.7490   17.1490 C.3    65  ILE65       0.0276
     47  CG1       -2.4240   18.9310   17.3830 C.3    65  ILE65       0.0022
     48  CG2       -1.4960   17.3190   15.6830 C.3    65  ILE65       0.0022
     49  CD1       -2.0480   20.2100   16.6310 C.3    65  ILE65       0.0001
     50  N         -9.9320   18.1150   13.7320 N.3   100  VAL100     -0.1245
     51  CA       -10.3770   17.5360   14.9940 C.3   100  VAL100      0.1561
     52  C        -11.4440   16.5220   14.5710 C.2   100  VAL100      0.2260
     53  O        -12.4500   16.8780   13.9510 O.2   100  VAL100     -0.2867
     54  CB       -10.9740   18.5950   15.9450 C.3   100  VAL100      0.0252
     55  CG1      -11.5970   17.9090   17.1670 C.3   100  VAL100      0.0019
     56  CG2       -9.8740   19.5460   16.4000 C.3   100  VAL100      0.0019
     57  N         -5.6690   12.8270   24.2430 N.3   112  THR112     -0.1218
     58  CA        -6.8840   13.6060   24.0310 C.3   112  THR112      0.1862
     59  C         -7.4000   14.3830   25.2390 C.2   112  THR112      0.2287
     60  O         -8.4400   15.0300   25.1500 O.2   112  THR112     -0.2866
     61  CB        -8.0310   12.6930   23.5500 C.3   112  THR112      0.1770
     62  OG1       -8.4110   11.8110   24.6120 O.3   112  THR112     -0.2211
     63  CG2       -7.5800   11.8580   22.3540 C.3   112  THR112      0.0375
     64  N        -10.9520   13.8700   26.1570 N.3   115  LEU115     -0.1245
     65  CA       -11.9880   14.2690   25.2030 C.3   115  LEU115      0.1561
     66  C        -12.3310   13.1230   24.2570 C.2   115  LEU115      0.2260
     67  O        -11.5230   12.2220   24.0510 O.2   115  LEU115     -0.2867
     68  CB       -11.5200   15.4770   24.3810 C.3   115  LEU115      0.0270
     69  CG       -11.1350   16.7300   25.1690 C.3   115  LEU115      0.0019
     70  CD1      -10.5460   17.7770   24.2320 C.3   115  LEU115      0.0001
     71  CD2      -12.3640   17.2720   25.8890 C.3   115  LEU115      0.0001
     72  N        -12.7010   13.4760   21.1760 N.3   117  THR117     -0.1203
     73  CA       -12.1300   13.8000   19.8730 C.3   117  THR117      0.1994
     74  C        -10.6050   13.7940   19.9020 C.2   117  THR117      0.2618
     75  O         -9.9920   13.8460   20.9720 O.2   117  THR117     -0.2717
     76  CB       -12.6040   15.1850   19.4000 C.3   117  THR117      0.1784
     77  OG1      -12.2770   16.1630   20.3960 O.3   117  THR117     -0.2211
     78  CG2      -14.1060   15.1900   19.1740 C.3   117  THR117      0.0376
     79  N        -10.0050   13.7170   18.7180 N.am  118  VAL118     -0.1965
     80  CA        -8.5520   13.7200   18.5840 C.3   118  VAL118      0.1727
     81  C         -8.1760   14.6630   17.4420 C.2   118  VAL118      0.2616
     82  O         -8.8740   14.7320   16.4320 O.2   118  VAL118     -0.2715
     83  CB        -8.0060   12.2880   18.2980 C.3   118  VAL118      0.0290
     84  CG1       -8.5600   11.7570   16.9730 C.3   118  VAL118      0.0023
     85  CG2       -6.4820   12.2980   18.2840 C.3   118  VAL118      0.0023
     86  N         -7.0950   15.4140   17.6260 N.am  119  ALA119     -0.1977
     87  CA        -6.6190   16.3480   16.6090 C.3   119  ALA119      0.1597
     88  C         -5.5480   15.6090   15.8160 C.2   119  ALA119      0.2287
     89  O         -4.6270   15.0360   16.4000 O.2   119  ALA119     -0.2864
     90  CB        -6.0340   17.5960   17.2750 C.3   119  ALA119      0.0319
     91  N          2.2270   14.8690   19.5140 N.3   140  ALA140     -0.1231
     92  CA         3.1620   15.9170   19.8600 C.3   140  ALA140      0.1679
     93  C          2.6050   17.3240   19.8480 C.2   140  ALA140      0.2434
     94  O          1.8530   17.7000   18.9490 O.2   140  ALA140     -0.2733
     95  CB         4.3680   15.8540   18.9160 C.3   140  ALA140      0.0304
     96  N          2.9290   18.1080   20.8850 N.am  141  PRO141     -0.2718
     97  CA         2.4840   19.4970   20.9790 C.3   141  PRO141      0.1535
     98  C          3.7540   20.2550   20.5690 C.2   141  PRO141      0.2599
     99  O          4.7500   19.6230   20.1980 O.2   141  PRO141     -0.2715
    100  CB         2.1830   19.6570   22.4630 C.3   141  PRO141      0.0310
    101  CG         3.3000   18.8570   23.0870 C.3   141  PRO141      0.0237
    102  CD         3.3810   17.6130   22.2020 C.3   141  PRO141      0.0939
    103  N          3.7330   21.5830   20.6140 N.am  142  SER142     -0.1950
    104  CA         4.9340   22.3470   20.2720 C.3   142  SER142      0.1924
    105  C          6.0240   21.9550   21.2760 C.2   142  SER142      0.2314
    106  O          5.7240   21.6180   22.4240 O.2   142  SER142     -0.2863
    107  CB         4.6540   23.8470   20.3520 C.3   142  SER142      0.2116
    108  OG         4.1370   24.1850   21.6230 O.3   142  SER142     -0.2180
    109  N          2.0780   27.6950   14.2770 N.3   179  GLU179     -0.1245
    110  CA         1.3540   26.4340   14.3460 C.3   179  GLU179      0.1567
    111  C          0.2670   26.2300   13.3000 C.2   179  GLU179      0.2260
    112  O         -0.3150   27.1790   12.7800 O.2   179  GLU179     -0.2867
    113  CB         0.7750   26.2500   15.7530 C.3   179  GLU179      0.0388
    114  CG         1.8240   26.4110   16.8470 C.3   179  GLU179      0.1160
    115  CD         1.8580   27.8150   17.4330 C.2   179  GLU179      0.3649
    116  OE1        1.6240   28.7970   16.6880 O.co2 179  GLU179     -0.2457
    117  OE2        2.1320   27.9320   18.6470 O.co2 179  GLU179     -0.2457
    118  N         -6.1880   24.8340   12.7250 N.3   182  ILE182     -0.1245
    119  CA        -6.9920   23.7630   13.3020 C.3   182  ILE182      0.1561
    120  C         -8.4640   23.9860   12.9840 C.2   182  ILE182      0.2260
    121  O         -9.0040   25.0620   13.2400 O.2   182  ILE182     -0.2867
    122  CB        -6.8670   23.6840   14.8450 C.3   182  ILE182      0.0252
    123  CG1       -5.4100   23.4770   15.2600 C.3   182  ILE182      0.0019
    124  CG2       -7.7060   22.5160   15.3670 C.3   182  ILE182      0.0019
    125  CD1       -5.2190   23.4040   16.7790 C.3   182  ILE182      0.0001
    126  N        -12.3440   22.1010   13.3740 N.3   184  ASN184     -0.1240
    127  CA       -13.1170   21.0400   13.9920 C.3   184  ASN184      0.1653
    128  C        -14.1680   20.5810   12.9900 C.2   184  ASN184      0.2266
    129  O        -15.0450   21.3580   12.6090 O.2   184  ASN184     -0.2867
    130  CB       -13.8220   21.5530   15.2500 C.3   184  ASN184      0.1155
    131  CG       -14.4450   20.4360   16.0600 C.2   184  ASN184      0.2627
    132  OD1      -14.7060   19.3510   15.5440 O.2   184  ASN184     -0.2716
    133  ND2      -14.6900   20.6970   17.3430 N.am  184  ASN184     -0.0877
    134  N        -10.6810   26.5480   14.8240 N.3   192  LEU192     -0.1231
    135  CA       -10.2450   26.6900   16.2090 C.3   192  LEU192      0.1693
    136  C         -8.9640   27.5060   16.3210 C.2   192  LEU192      0.2591
    137  O         -8.7080   28.1390   17.3470 O.2   192  LEU192     -0.2718
    138  CB       -10.0480   25.3160   16.8540 C.3   192  LEU192      0.0284
    139  CG       -11.2910   24.4270   16.9620 C.3   192  LEU192      0.0019
    140  CD1      -10.9150   23.0870   17.5790 C.3   192  LEU192      0.0001
    141  CD2      -12.3530   25.1280   17.8020 C.3   192  LEU192      0.0001
    142  N         -8.1610   27.4940   15.2650 N.am  193  ARG193     -0.1980
    143  CA        -6.9140   28.2450   15.2680 C.3   193  ARG193      0.1597
    144  C         -6.4270   28.5470   13.8620 C.2   193  ARG193      0.2287
    145  O         -6.2840   27.6460   13.0350 O.2   193  ARG193     -0.2864
    146  CB        -5.8210   27.4790   16.0190 C.3   193  ARG193      0.0334
    147  CG        -4.4910   28.2330   16.1030 C.3   193  ARG193      0.0492
    148  CD        -3.4340   27.4530   16.8820 C.3   193  ARG193      0.2205
    149  NE        -3.0310   26.2280   16.1870 N.pl3 193  ARG193     -0.0865
    150  CZ        -2.2940   25.2630   16.7310 C.cat 193  ARG193      0.5346
    151  NH1       -1.8690   25.3680   17.9850 N.pl3 193  ARG193      0.1354
    152  NH2       -1.9870   24.1860   16.0200 N.pl3 193  ARG193      0.1354
@<TRIPOS>BOND
     1   129   128    2
     2   118   119    1
     3   112   111    2
     4   120   121    2
     5   120   119    1
     6   128   127    1
     7   145   144    2
     8   111   110    1
     9   119   122    1
    10   126   127    1
    11     1     2    1
    12    50    51    1
    13   144   143    1
    14    53    52    2
    15   127   130    1
    16   109   110    1
    17   110   113    1
    18    52    51    1
    19     2     3    1
    20     2     5    1
    21     4     3    2
    22   134   135    1
    23   122   123    1
    24   122   124    1
    25    51    54    1
    26   130   131    1
    27   123   125    1
    28   142   143    1
    29   142   136   am
    30   143   146    1
    31     6     5    1
    32   132   131    2
    33    48    46    1
    34   113   114    1
    35     5     7    1
    36    88    89    2
    37    88    87    1
    38    54    56    1
    39    54    55    1
    40   146   147    1
    41   152   150    1
    42   131   133   am
    43   147   148    1
    44   149   150    2
    45   149   148    1
    46   135   136    1
    47   135   138    1
    48   136   137    2
    49    82    81    2
    50    87    90    1
    51    87    86    1
    52    49    47    1
    53   116   115   ar
    54   150   151    1
    55   114   115    1
    56   138   139    1
    57   139   140    1
    58   139   141    1
    59    84    83    1
    60    46    47    1
    61    46    43    1
    62   115   117   ar
    63    81    86   am
    64    81    80    1
    65    44    45    2
    66    44    43    1
    67    43    42    1
    68    85    83    1
    69    83    80    1
    70    80    79    1
    71    79    74   am
    72    95    92    1
    73    94    93    2
    74    78    76    1
    75    76    73    1
    76    76    77    1
    77    42    36   am
    78    91    92    1
    79    93    92    1
    80    93    96   am
    81    73    74    1
    82    73    72    1
    83    74    75    2
    84    99    98    2
    85    37    36    2
    86   104   107    1
    87   104   103    1
    88   104   105    1
    89   107   108    1
    90    36    35    1
    91    98   103   am
    92    98    97    1
    93    96    97    1
    94    96   102    1
    95    97   100    1
    96   105   106    2
    97    35    38    1
    98    35    34    1
    99    38    39    1
   100   102   101    1
   101    63    61    1
   102   100   101    1
   103    34    29   am
   104    30    29    2
   105    29    28    1
   106    61    58    1
   107    61    62    1
   108    39    40    1
   109    39    41    1
   110    32    31    1
   111    32    33    1
   112    31    28    1
   113    58    57    1
   114    58    59    1
   115    67    66    2
   116    18    16    1
   117    70    69    1
   118    66    65    1
   119    68    69    1
   120    68    65    1
   121    28    27    1
   122    17    16    1
   123    16    15    2
   124    25    24    2
   125    33    27    1
   126    60    59    2
   127    69    71    1
   128    65    64    1
   129    27    21   am
   130    15    14    1
   131    24    26   am
   132    24    23    1
   133    21    22    2
   134    21    20    1
   135    14    13    1
   136    20    23    1
   137    20    19    1
   138    13    12    1
   139    12     9    1
   140     9     8    1
   141     9    10    1
   142    10    11    2
