@<TRIPOS>MOLECULE
tmp/2eqdA00.pdb
 252 246 0 0 0
SMALL
GASTEIGER

@<TRIPOS>ATOM
      1  N         13.9920   36.2400    9.6860 N.3    38  GLY38      -0.1210
      2  CA        12.6140   35.7890    9.6400 C.3    38  GLY38       0.1956
      3  C         11.7190   36.7810    8.9340 C.2    38  GLY38       0.2612
      4  O         12.1920   37.6150    8.1710 O.2    38  GLY38      -0.2717
      5  N         10.4200   36.6930    9.1790 N.am   39  GLY39      -0.1942
      6  CA         9.5000   37.6070    8.5300 C.3    39  GLY39       0.2014
      7  C          8.9030   37.0350    7.2550 C.2    39  GLY39       0.2639
      8  O          9.3200   35.9830    6.7700 O.2    39  GLY39      -0.2714
      9  N          7.9270   37.7470    6.7050 N.am   40  ASN40      -0.1958
     10  CA         7.2360   37.3310    5.4950 C.3    40  ASN40       0.1819
     11  C          8.0750   36.7040    4.3670 C.2    40  ASN40       0.2621
     12  O          7.7250   35.6480    3.8560 O.2    40  ASN40      -0.2715
     13  CB         6.4290   38.5120    4.9550 C.3    40  ASN40       0.1195
     14  CG         5.2850   38.8980    5.8780 C.2    40  ASN40       0.2630
     15  OD1        5.0510   38.2480    6.8930 O.2    40  ASN40      -0.2716
     16  ND2        4.5630   39.9550    5.5240 N.am   40  ASN40      -0.0877
     17  N          9.1710   37.3360    3.9720 N.am   41  ARG41      -0.1977
     18  CA         9.9860   36.7950    2.8930 C.3    41  ARG41       0.1597
     19  C         10.5740   35.4180    3.1680 C.2    41  ARG41       0.2287
     20  O         10.7510   34.6080    2.2490 O.2    41  ARG41      -0.2864
     21  CB        11.1180   37.7560    2.5600 C.3    41  ARG41       0.0334
     22  CG        10.7300   38.8150    1.5750 C.3    41  ARG41       0.0492
     23  CD        10.4800   38.2140    0.2050 C.3    41  ARG41       0.2205
     24  NE        10.3100   39.2580   -0.7940 N.pl3  41  ARG41      -0.0865
     25  CZ        10.4990   39.0820   -2.0950 C.cat  41  ARG41       0.5346
     26  NH1       10.8640   37.8950   -2.5600 N.pl3  41  ARG41       0.1354
     27  NH2       10.3460   40.1060   -2.9230 N.pl3  41  ARG41       0.1354
     28  N          7.6190   37.4080   -2.3160 N.3    54  ALA54      -0.1245
     29  CA         7.1950   38.5320   -1.4840 C.3    54  ALA54       0.1562
     30  C          5.7720   38.3070   -0.9910 C.2    54  ALA54       0.2260
     31  O          5.2470   39.0740   -0.1750 O.2    54  ALA54      -0.2867
     32  CB         7.2640   39.8300   -2.2750 C.3    54  ALA54       0.0290
     33  N          1.9050   38.4000   -0.6110 N.3    56  SER56      -0.1202
     34  CA         1.0170   39.5120   -0.8780 C.3    56  SER56       0.2020
     35  C          1.6600   40.8500   -0.5700 C.2    56  SER56       0.2619
     36  O          1.1290   41.8910   -0.9580 O.2    56  SER56      -0.2717
     37  CB        -0.2810   39.3570   -0.0980 C.3    56  SER56       0.2103
     38  OG        -0.0130   39.2250    1.2820 O.3    56  SER56      -0.2182
     39  N          2.8000   40.8390    0.1140 N.am   57  ASP57      -0.1959
     40  CA         3.4730   42.1010    0.4090 C.3    57  ASP57       0.1840
     41  C          3.7280   42.8150   -0.9090 C.2    57  ASP57       0.2622
     42  O          3.7250   44.0420   -0.9680 O.2    57  ASP57      -0.2715
     43  CB         4.8140   41.8890    1.1250 C.3    57  ASP57       0.1450
     44  CG         4.6570   41.6230    2.6120 C.2    57  ASP57       0.3671
     45  OD1        3.6410   42.0460    3.1990 O.co2  57  ASP57      -0.2456
     46  OD2        5.5610   41.0050    3.2040 O.co2  57  ASP57      -0.2456
     47  N          3.9580   42.0450   -1.9680 N.am   58  TRP58      -0.1974
     48  CA         4.1920   42.6440   -3.2750 C.3    58  TRP58       0.1640
     49  C          3.9490   41.7550   -4.5000 C.2    58  TRP58       0.2290
     50  O          4.8660   41.1140   -5.0280 O.2    58  TRP58      -0.2864
     51  CB         5.5960   43.2420   -3.3540 C.3    58  TRP58       0.0576
     52  CG         5.7870   43.9860   -4.6280 C.ar   58  TRP58       0.0006
     53  CD1        6.0740   43.4550   -5.8540 C.ar   58  TRP58       0.0946
     54  CD2        5.5720   45.3850   -4.8370 C.ar   58  TRP58       0.0152
     55  NE1        6.0400   44.4320   -6.8160 N.ar   58  TRP58      -0.2442
     56  CE2        5.7360   45.6290   -6.2220 C.ar   58  TRP58       0.0810
     57  CE3        5.2540   46.4570   -3.9920 C.ar   58  TRP58       0.0012
     58  CZ2        5.5910   46.9040   -6.7830 C.ar   58  TRP58       0.0191
     59  CZ3        5.1090   47.7260   -4.5460 C.ar   58  TRP58       0.0001
     60  CH2        5.2780   47.9390   -5.9340 C.ar   58  TRP58       0.0015
     61  N         15.0830   39.4360   -3.8940 N.3    65  TYR65      -0.1241
     62  CA        15.0390   40.4620   -2.8550 C.3    65  TYR65       0.1605
     63  C         15.9350   40.1650   -1.6590 C.2    65  TYR65       0.2264
     64  O         16.6120   41.0580   -1.1660 O.2    65  TYR65      -0.2867
     65  CB        13.6040   40.6560   -2.3620 C.3    65  TYR65       0.0534
     66  CG        13.4670   41.6010   -1.1720 C.ar   65  TYR65      -0.0201
     67  CD1       13.4700   42.9820   -1.3390 C.ar   65  TYR65      -0.0009
     68  CD2       13.3510   41.0980    0.1300 C.ar   65  TYR65      -0.0009
     69  CE1       13.3590   43.8360   -0.2440 C.ar   65  TYR65       0.0417
     70  CE2       13.2390   41.9460    1.2300 C.ar   65  TYR65       0.0417
     71  CZ        13.2450   43.3120    1.0380 C.ar   65  TYR65       0.1957
     72  OH        13.1320   44.1460    2.1250 O.3    65  TYR65      -0.2866
     73  N          7.0720   31.4590    9.9000 N.3   179  ASN179     -0.1225
     74  CA         6.6890   32.7670   10.3990 C.3   179  ASN179      0.1785
     75  C          5.1930   32.9630   10.2760 C.2   179  ASN179      0.2597
     76  O          4.6160   32.7600    9.2140 O.2   179  ASN179     -0.2718
     77  CB         7.4110   33.8480    9.5890 C.3   179  ASN179      0.1169
     78  CG         7.1010   35.2540   10.0660 C.2   179  ASN179      0.2627
     79  OD1        7.4690   35.6540   11.1770 O.2   179  ASN179     -0.2716
     80  ND2        6.4220   36.0170    9.2220 N.am  179  ASN179     -0.0877
     81  N          4.5720   33.3560   11.3760 N.am  180  GLN180     -0.1979
     82  CA         3.1410   33.6150   11.4240 C.3   180  GLN180      0.1601
     83  C          2.3020   32.6950   10.5380 C.2   180  GLN180      0.2287
     84  O          1.8450   33.0830    9.4610 O.2   180  GLN180     -0.2864
     85  CB         2.8830   35.0840   11.0720 C.3   180  GLN180      0.0394
     86  CG         3.8990   36.0380   11.6820 C.3   180  GLN180      0.0908
     87  CD         3.5870   37.5080   11.4420 C.2   180  GLN180      0.2608
     88  OE1        3.0840   37.8970   10.3760 O.2   180  GLN180     -0.2717
     89  NE2        3.9110   38.3400   12.4300 N.am  180  GLN180     -0.0878
     90  N         -1.3290   33.4700    9.4350 N.3   183  LEU183     -0.1245
     91  CA        -1.4460   34.4130    8.3240 C.3   183  LEU183      0.1561
     92  C         -0.8740   33.8690    7.0050 C.2   183  LEU183      0.2260
     93  O         -0.6970   34.6070    6.0390 O.2   183  LEU183     -0.2867
     94  CB        -0.7600   35.7440    8.6600 C.3   183  LEU183      0.0270
     95  CG        -1.4200   36.5660    9.7650 C.3   183  LEU183      0.0019
     96  CD1       -0.8030   37.9590    9.8310 C.3   183  LEU183      0.0001
     97  CD2       -2.9010   36.6840    9.4810 C.3   183  LEU183      0.0001
     98  N         -3.0150   34.4440    4.1620 N.3   186  HIS186     -0.1226
     99  CA        -3.2600   35.8680    3.9260 C.3   186  HIS186      0.1752
    100  C         -2.0480   36.5110    3.2710 C.2   186  HIS186      0.2596
    101  O         -2.1800   37.3770    2.4190 O.2   186  HIS186     -0.2718
    102  CB        -3.5640   36.5860    5.2490 C.3   186  HIS186      0.0759
    103  CG        -3.5450   38.0840    5.1540 C.ar  186  HIS186      0.0818
    104  ND1       -4.3510   38.7920    4.2870 N.ar  186  HIS186     -0.2268
    105  CD2       -2.8340   39.0130    5.8420 C.ar  186  HIS186      0.1154
    106  CE1       -4.1390   40.0870    4.4420 C.ar  186  HIS186      0.1986
    107  NE2       -3.2240   40.2480    5.3820 N.ar  186  HIS186     -0.2212
    108  N         -0.8660   36.0660    3.6790 N.am  187  THR187     -0.1953
    109  CA         0.3980   36.5820    3.1780 C.3   187  THR187      0.1897
    110  C          0.9600   35.7570    2.0290 C.2   187  THR187      0.2313
    111  O          1.6160   36.2860    1.1300 O.2   187  THR187     -0.2863
    112  CB         1.4330   36.5970    4.2950 C.3   187  THR187      0.1794
    113  OG1        0.9330   37.3710    5.3860 O.3   187  THR187     -0.2208
    114  CG2        2.7540   37.1920    3.8120 C.3   187  THR187      0.0378
    115  N          1.7420   36.0750   14.8500 N.3   227  TYR227     -0.1241
    116  CA         1.7770   37.4910   14.5160 C.3   227  TYR227      0.1605
    117  C          1.2220   38.3930   15.6030 C.2   227  TYR227      0.2264
    118  O          1.7770   39.4480   15.8740 O.2   227  TYR227     -0.2867
    119  CB         0.9950   37.7170   13.2190 C.3   227  TYR227      0.0534
    120  CG        -0.4900   37.9090   13.4090 C.ar  227  TYR227     -0.0201
    121  CD1       -1.0170   39.1810   13.6100 C.ar  227  TYR227     -0.0009
    122  CD2       -1.3680   36.8280   13.3610 C.ar  227  TYR227     -0.0009
    123  CE1       -2.3800   39.3750   13.7510 C.ar  227  TYR227      0.0417
    124  CE2       -2.7360   37.0070   13.5020 C.ar  227  TYR227      0.0417
    125  CZ        -3.2390   38.2890   13.6910 C.ar  227  TYR227      0.1957
    126  OH        -4.6010   38.5070   13.7850 O.3   227  TYR227     -0.2866
    127  N         -4.8400   37.6160   18.1630 N.3   230  ALA230     -0.1245
    128  CA        -5.7910   36.6870   17.5650 C.3   230  ALA230      0.1562
    129  C         -5.2110   35.2750   17.4270 C.2   230  ALA230      0.2260
    130  O         -5.8890   34.2870   17.7210 O.2   230  ALA230     -0.2867
    131  CB        -6.2540   37.1970   16.2100 C.3   230  ALA230      0.0290
    132  N         -4.9080   33.4910   20.9060 N.3   233  GLU233     -0.1245
    133  CA        -6.1760   32.9700   21.3870 C.3   233  GLU233      0.1567
    134  C         -6.7800   31.7960   20.6230 C.2   233  GLU233      0.2260
    135  O         -7.1000   30.7720   21.2210 O.2   233  GLU233     -0.2867
    136  CB        -7.1930   34.1180   21.4630 C.3   233  GLU233      0.0388
    137  CG        -8.5510   33.7160   22.0050 C.3   233  GLU233      0.1160
    138  CD        -9.3720   34.9110   22.4590 C.2   233  GLU233      0.3649
    139  OE1       -9.4300   35.9140   21.7060 O.co2 233  GLU233     -0.2457
    140  OE2       -9.9640   34.8380   23.5640 O.co2 233  GLU233     -0.2457
    141  N         -6.0800   32.4690   15.0240 N.3   236  GLN236     -0.1245
    142  CA        -6.9130   33.2420   14.1120 C.3   236  GLN236      0.1566
    143  C         -8.1550   32.4700   13.6600 C.2   236  GLN236      0.2260
    144  O         -8.3800   32.2750   12.4600 O.2   236  GLN236     -0.2867
    145  CB        -6.1060   33.6830   12.8860 C.3   236  GLN236      0.0367
    146  CG        -6.8760   34.6190   11.9760 C.3   236  GLN236      0.0905
    147  CD        -6.6220   36.0900   12.2590 C.2   236  GLN236      0.2608
    148  OE1       -6.3390   36.4810   13.3950 O.2   236  GLN236     -0.2717
    149  NE2       -6.7360   36.9210   11.2180 N.am  236  GLN236     -0.0878
    150  N          2.9340   43.4670   18.4740 N.3   279  TYR279     -0.1241
    151  CA         2.8300   44.8310   17.9580 C.3   279  TYR279      0.1605
    152  C          1.6930   45.4740   18.7430 C.2   279  TYR279      0.2264
    153  O          0.5270   45.1090   18.5830 O.2   279  TYR279     -0.2867
    154  CB         2.5010   44.8250   16.4600 C.3   279  TYR279      0.0534
    155  CG         3.6520   44.3850   15.5850 C.ar  279  TYR279     -0.0201
    156  CD1        4.6140   45.2930   15.1670 C.ar  279  TYR279     -0.0009
    157  CD2        3.7980   43.0570   15.2090 C.ar  279  TYR279     -0.0009
    158  CE1        5.7010   44.8880   14.3870 C.ar  279  TYR279      0.0417
    159  CE2        4.8780   42.6380   14.4370 C.ar  279  TYR279      0.0417
    160  CZ         5.8290   43.5580   14.0290 C.ar  279  TYR279      0.1957
    161  OH         6.9060   43.1510   13.2690 O.3   279  TYR279     -0.2866
    162  N         -1.4070   47.2280   20.1180 N.3   281  GLU281     -0.1245
    163  CA        -2.6510   47.6710   19.4890 C.3   281  GLU281      0.1567
    164  C         -3.0200   48.9530   20.2420 C.2   281  GLU281      0.2260
    165  O         -3.9630   49.6700   19.8870 O.2   281  GLU281     -0.2867
    166  CB        -3.7520   46.6100   19.6360 C.3   281  GLU281      0.0388
    167  CG        -3.5570   45.3960   18.7380 C.3   281  GLU281      0.1160
    168  CD        -3.9980   45.6330   17.2940 C.2   281  GLU281      0.3649
    169  OE1       -3.7330   46.7320   16.7490 O.co2 281  GLU281     -0.2457
    170  OE2       -4.6020   44.7050   16.7000 O.co2 281  GLU281     -0.2457
    171  N         -2.9540   54.2630   16.2220 N.3   288  ARG288     -0.1245
    172  CA        -2.2540   53.1870   16.9170 C.3   288  ARG288      0.1563
    173  C         -0.8370   53.6970   17.1710 C.2   288  ARG288      0.2260
    174  O         -0.2980   54.4430   16.3470 O.2   288  ARG288     -0.2867
    175  CB        -2.2270   51.9580   16.0110 C.3   288  ARG288      0.0307
    176  CG        -1.5810   50.7330   16.5900 C.3   288  ARG288      0.0489
    177  CD        -1.7970   49.5560   15.6470 C.3   288  ARG288      0.2205
    178  NE        -1.1980   48.3220   16.1370 N.pl3 288  ARG288     -0.0865
    179  CZ        -1.3320   47.1430   15.5440 C.cat 288  ARG288      0.5346
    180  NH1       -2.0500   47.0320   14.4340 N.pl3 288  ARG288      0.1354
    181  NH2       -0.7460   46.0740   16.0630 N.pl3 288  ARG288      0.1354
    182  N          3.1580   51.3200   13.5820 N.3   291  PHE291     -0.1241
    183  CA         2.7320   51.2630   12.1780 C.3   291  PHE291      0.1605
    184  C          2.3960   52.6050   11.5250 C.2   291  PHE291      0.2264
    185  O          1.2360   52.8830   11.2040 O.2   291  PHE291     -0.2867
    186  CB         1.5310   50.3160   12.0190 C.3   291  PHE291      0.0534
    187  CG         1.8390   48.8760   12.3380 C.ar  291  PHE291     -0.0203
    188  CD1        2.8370   48.1890   11.6550 C.ar  291  PHE291     -0.0042
    189  CD2        1.1130   48.2000   13.3150 C.ar  291  PHE291     -0.0042
    190  CE1        3.1070   46.8540   11.9380 C.ar  291  PHE291     -0.0003
    191  CE2        1.3770   46.8640   13.6040 C.ar  291  PHE291     -0.0003
    192  CZ         2.3750   46.1910   12.9120 C.ar  291  PHE291     -0.0000
    193  N         -8.6550   46.9140   21.3800 N.3   321  TRP321     -0.1241
    194  CA        -9.6230   45.8400   21.5120 C.3   321  TRP321      0.1605
    195  C         -9.1190   44.8220   22.5380 C.2   321  TRP321      0.2264
    196  O         -9.9140   44.1560   23.2000 O.2   321  TRP321     -0.2867
    197  CB        -9.8860   45.1510   20.1620 C.3   321  TRP321      0.0550
    198  CG        -8.6870   44.5210   19.4940 C.ar  321  TRP321      0.0003
    199  CD1       -7.7580   45.1400   18.7040 C.ar  321  TRP321      0.0946
    200  CD2       -8.3200   43.1370   19.5260 C.ar  321  TRP321      0.0152
    201  NE1       -6.8400   44.2280   18.2390 N.ar  321  TRP321     -0.2442
    202  CE2       -7.1610   42.9920   18.7290 C.ar  321  TRP321      0.0810
    203  CE3       -8.8590   42.0030   20.1490 C.ar  321  TRP321      0.0012
    204  CZ2       -6.5330   41.7580   18.5380 C.ar  321  TRP321      0.0191
    205  CZ3       -8.2350   40.7710   19.9580 C.ar  321  TRP321      0.0001
    206  CH2       -7.0820   40.6630   19.1570 C.ar  321  TRP321      0.0015
    207  N        -11.5220   44.1630   25.4380 N.3   325  TRP325     -0.1227
    208  CA       -12.1610   42.8530   25.5240 C.3   325  TRP325      0.1737
    209  C        -11.2910   41.6740   25.9340 C.2   325  TRP325      0.2595
    210  O        -11.7860   40.5470   25.9860 O.2   325  TRP325     -0.2718
    211  CB       -12.8120   42.5070   24.1820 C.3   325  TRP325      0.0564
    212  CG       -13.6990   43.5720   23.6120 C.ar  325  TRP325      0.0003
    213  CD1      -13.4290   44.3780   22.5440 C.ar  325  TRP325      0.0946
    214  CD2      -15.0170   43.9210   24.0570 C.ar  325  TRP325      0.0152
    215  NE1      -14.4960   45.2040   22.2900 N.ar  325  TRP325     -0.2442
    216  CE2      -15.4860   44.9460   23.2030 C.ar  325  TRP325      0.0810
    217  CE3      -15.8480   43.4680   25.0900 C.ar  325  TRP325      0.0012
    218  CZ2      -16.7550   45.5260   23.3520 C.ar  325  TRP325      0.0191
    219  CZ3      -17.1120   44.0450   25.2390 C.ar  325  TRP325      0.0001
    220  CH2      -17.5500   45.0630   24.3720 C.ar  325  TRP325      0.0015
    221  N        -10.0150   41.9050   26.2330 N.am  326  LYS326     -0.1980
    222  CA        -9.1510   40.7830   26.5870 C.3   326  LYS326      0.1596
    223  C         -8.4840   40.8280   27.9580 C.2   326  LYS326      0.2287
    224  O         -7.5080   40.1190   28.1930 O.2   326  LYS326     -0.2864
    225  CB        -8.0880   40.6230   25.5010 C.3   326  LYS326      0.0298
    226  CG        -8.6770   40.5600   24.0980 C.3   326  LYS326      0.0038
    227  CD        -9.6320   39.3700   23.9500 C.3   326  LYS326      0.0206
    228  CE       -10.3690   39.3920   22.6080 C.3   326  LYS326      0.1093
    229  NZ       -11.2540   38.2000   22.4090 N.3   326  LYS326     -0.1314
    230  N          9.4460   39.5530   17.3460 N.3   353  GLU353     -0.1245
    231  CA         9.0440   40.7050   16.5620 C.3   353  GLU353      0.1567
    232  C          8.2530   41.6350   17.4600 C.2   353  GLU353      0.2260
    233  O          7.4150   41.1940   18.2470 O.2   353  GLU353     -0.2867
    234  CB         8.2150   40.3030   15.3430 C.3   353  GLU353      0.0388
    235  CG         9.0440   39.9940   14.1100 C.3   353  GLU353      0.1160
    236  CD         8.1970   39.8430   12.8700 C.2   353  GLU353      0.3649
    237  OE1        7.3360   40.7200   12.6410 O.co2 353  GLU353     -0.2457
    238  OE2        8.3930   38.8560   12.1220 O.co2 353  GLU353     -0.2457
    239  N         11.8150   44.8360   15.2820 N.3   386  TRP386     -0.1241
    240  CA        11.5550   44.9090   13.8540 C.3   386  TRP386      0.1605
    241  C         11.4360   46.3730   13.4470 C.2   386  TRP386      0.2264
    242  O         10.6110   47.1180   13.9800 O.2   386  TRP386     -0.2867
    243  CB        10.2850   44.1260   13.4950 C.3   386  TRP386      0.0550
    244  CG        10.0190   44.0730   12.0200 C.ar  386  TRP386      0.0003
    245  CD1        9.4580   45.0580   11.2590 C.ar  386  TRP386      0.0946
    246  CD2       10.3850   43.0200   11.1140 C.ar  386  TRP386      0.0152
    247  NE1        9.4590   44.6900    9.9340 N.ar  386  TRP386     -0.2442
    248  CE2       10.0220   43.4460    9.8120 C.ar  386  TRP386      0.0810
    249  CE3       10.9880   41.7630   11.2730 C.ar  386  TRP386      0.0012
    250  CZ2       10.2480   42.6570    8.6640 C.ar  386  TRP386      0.0191
    251  CZ3       11.2150   40.9730   10.1270 C.ar  386  TRP386      0.0001
    252  CH2       10.8440   41.4300    8.8410 C.ar  386  TRP386      0.0015
@<TRIPOS>BOND
     1    55    56   ar
     2    55    53   ar
     3    58    56   ar
     4    58    60   ar
     5    56    54   ar
     6    60    59   ar
     7    53    52   ar
     8    50    49    2
     9    54    52   ar
    10    54    57   ar
    11    52    51    1
    12    59    57   ar
    13    49    48    1
    14    61    62    1
    15    51    48    1
    16    48    47    1
    17    27    25    1
    18    62    65    1
    19    62    63    1
    20    26    25    1
    21    65    66    1
    22    28    29    1
    23    32    29    1
    24    25    24    2
    25    47    41   am
    26    63    64    2
    27    29    30    1
    28    67    66   ar
    29    67    69   ar
    30    66    68   ar
    31    30    31    2
    32    42    41    2
    33    36    35    2
    34    41    40    1
    35    34    33    1
    36    34    35    1
    37    34    37    1
    38    24    23    1
    39    35    39   am
    40    69    71   ar
    41    37    38    1
    42    39    40    1
    43    68    70   ar
    44    23    22    1
    45    40    43    1
    46    71    70   ar
    47    71    72    1
    48    43    44    1
    49   111   110    2
    50    22    21    1
    51   110   109    1
    52    20    19    2
    53   101   100    2
    54    21    18    1
    55    44    45   ar
    56    44    46   ar
    57    18    19    1
    58    18    17    1
    59   109   108    1
    60   109   112    1
    61   100   108   am
    62   100    99    1
    63   114   112    1
    64    12    11    2
    65    99    98    1
    66    99   102    1
    67    17    11   am
    68   104   106   ar
    69   104   103   ar
    70   112   113    1
    71    11    10    1
    72   106   107   ar
    73    13    10    1
    74    13    14    1
    75   103   102    1
    76   103   105   ar
    77   107   105   ar
    78    10     9    1
    79    16    14   am
    80    14    15    2
    81    93    92    2
    82     9     7   am
    83     8     7    2
    84    92    91    1
    85     7     6    1
    86     4     3    2
    87    91    94    1
    88    91    90    1
    89     6     5    1
    90    94    95    1
    91   250   252   ar
    92   250   248   ar
    93   252   251   ar
    94     3     5   am
    95     3     2    1
    96    76    75    2
    97    80    78   am
    98    84    83    2
    99    97    95    1
   100    77    78    1
   101    77    74    1
   102     2     1    1
   103    95    96    1
   104   248   247   ar
   105   248   246   ar
   106    73    74    1
   107   247   245   ar
   108    78    79    2
   109   251   249   ar
   110    75    74    1
   111    75    81   am
   112    88    87    2
   113    83    82    1
   114    85    82    1
   115    85    86    1
   116   246   249   ar
   117   246   244   ar
   118   185   184    2
   119   149   147   am
   120   245   244   ar
   121    81    82    1
   122    87    86    1
   123    87    89   am
   124   184   183    1
   125   188   190   ar
   126   188   187   ar
   127   190   192   ar
   128   146   147    1
   129   146   145    1
   130   186   183    1
   131   186   187    1
   132   244   243    1
   133   238   236   ar
   134   183   182    1
   135   147   148    2
   136   187   189   ar
   137   144   143    2
   138   237   236   ar
   139   236   235    1
   140   145   142    1
   141   192   191   ar
   142   119   120    1
   143   119   116    1
   144   161   160    1
   145   189   191   ar
   146   122   120   ar
   147   122   124   ar
   148   120   121   ar
   149   241   240    1
   150   241   242    2
   151   243   240    1
   152   124   125   ar
   153   121   123   ar
   154   143   142    1
   155   125   123   ar
   156   125   126    1
   157   240   239    1
   158   160   158   ar
   159   160   159   ar
   160   235   234    1
   161   142   141    1
   162   158   156   ar
   163   180   179    1
   164   159   157   ar
   165   116   115    1
   166   116   117    1
   167   156   155   ar
   168   157   155   ar
   169   234   231    1
   170   179   181    1
   171   179   178    2
   172   155   154    1
   173   117   118    2
   174   177   178    1
   175   177   176    1
   176   175   176    1
   177   175   172    1
   178   131   128    1
   179   171   172    1
   180   174   173    2
   181   154   151    1
   182   231   230    1
   183   231   232    1
   184   170   168   ar
   185   169   168   ar
   186   172   173    1
   187   168   167    1
   188   129   128    1
   189   129   130    2
   190   232   233    2
   191   128   127    1
   192   151   150    1
   193   151   152    1
   194   201   199   ar
   195   201   202   ar
   196   204   202   ar
   197   204   206   ar
   198   153   152    2
   199   199   198   ar
   200   202   200   ar
   201   167   166    1
   202   206   205   ar
   203   163   166    1
   204   163   162    1
   205   163   164    1
   206   198   200   ar
   207   198   197    1
   208   200   203   ar
   209   165   164    2
   210   205   203   ar
   211   197   194    1
   212   134   135    2
   213   134   133    1
   214   132   133    1
   215   193   194    1
   216   133   136    1
   217   136   137    1
   218   194   195    1
   219   139   138   ar
   220   137   138    1
   221   215   213   ar
   222   215   216   ar
   223   229   228    1
   224   138   140   ar
   225   195   196    2
   226   213   212   ar
   227   228   227    1
   228   216   218   ar
   229   216   214   ar
   230   218   220   ar
   231   212   214   ar
   232   212   211    1
   233   227   226    1
   234   214   217   ar
   235   226   225    1
   236   211   208    1
   237   220   219   ar
   238   217   219   ar
   239   207   208    1
   240   225   222    1
   241   208   209    1
   242   209   210    2
   243   209   221   am
   244   221   222    1
   245   222   223    1
   246   223   224    2
