@<TRIPOS>MOLECULE
tmp/2erjB00.pdb
 129 120 0 0 0
SMALL
GASTEIGER

@<TRIPOS>ATOM
      1  N         26.9780   13.6260   26.4100 N.3     6  PHE6       -0.1241
      2  CA        26.0590   13.4600   25.2920 C.3     6  PHE6        0.1605
      3  C         25.8150   14.7740   24.6030 C.2     6  PHE6        0.2264
      4  O         26.0220   15.8380   25.1920 O.2     6  PHE6       -0.2867
      5  CB        24.7470   12.8740   25.7590 C.3     6  PHE6        0.0534
      6  CG        24.8400   11.4360   26.1440 C.ar    6  PHE6       -0.0203
      7  CD1       24.8960   10.4470   25.1720 C.ar    6  PHE6       -0.0042
      8  CD2       24.8650   11.0610   27.4850 C.ar    6  PHE6       -0.0042
      9  CE1       24.9710    9.0970   25.5260 C.ar    6  PHE6       -0.0003
     10  CE2       24.9440    9.7160   27.8540 C.ar    6  PHE6       -0.0003
     11  CZ        24.9960    8.7320   26.8710 C.ar    6  PHE6       -0.0000
     12  N         23.0340   16.9130   22.0750 N.3     8  ASN8       -0.1240
     13  CA        21.6160   16.9400   21.7170 C.3     8  ASN8        0.1653
     14  C         21.3750   17.1450   20.2380 C.2     8  ASN8        0.2266
     15  O         20.2490   17.3720   19.8190 O.2     8  ASN8       -0.2867
     16  CB        20.8430   17.9860   22.5330 C.3     8  ASN8        0.1155
     17  CG        21.0670   19.4050   22.0470 C.2     8  ASN8        0.2627
     18  OD1       22.0670   19.7130   21.4150 O.2     8  ASN8       -0.2716
     19  ND2       20.1340   20.2780   22.3590 N.am    8  ASN8       -0.0877
     20  N         24.1410   21.8470   22.3920 N.3    12  ASN12      -0.1240
     21  CA        24.1410   21.5090   23.8110 C.3    12  ASN12       0.1653
     22  C         24.7550   20.1470   24.0900 C.2    12  ASN12       0.2266
     23  O         24.2000   19.1070   23.7090 O.2    12  ASN12      -0.2867
     24  CB        22.7080   21.5630   24.3410 C.3    12  ASN12       0.1155
     25  CG        22.6110   21.3960   25.8560 C.2    12  ASN12       0.2627
     26  OD1       23.6150   21.3740   26.5670 O.2    12  ASN12      -0.2716
     27  ND2       21.3650   21.2810   26.3460 N.am   12  ASN12      -0.0877
     28  N         26.0540   17.8260   27.3040 N.3    14  SER14      -0.1217
     29  CA        25.9650   17.6760   28.7520 C.3    14  SER14       0.1889
     30  C         26.8550   16.5610   29.2900 C.2    14  SER14       0.2288
     31  O         26.9470   15.4860   28.6990 O.2    14  SER14      -0.2866
     32  CB        24.5180   17.4410   29.1680 C.3    14  SER14       0.2089
     33  OG        24.3960   17.4050   30.5770 O.3    14  SER14      -0.2183
     34  N         28.7020   14.2150   32.6800 N.3    16  VAL16      -0.1245
     35  CA        28.5980   13.6150   34.0080 C.3    16  VAL16       0.1561
     36  C         29.9220   12.9640   34.3700 C.2    16  VAL16       0.2260
     37  O         30.4070   12.0920   33.6480 O.2    16  VAL16      -0.2867
     38  CB        27.4770   12.5490   34.0960 C.3    16  VAL16       0.0252
     39  CG1       27.5010   11.8530   35.4610 C.3    16  VAL16       0.0019
     40  CG2       26.1120   13.1690   33.8530 C.3    16  VAL16       0.0019
     41  N         25.9450   16.5540   41.9720 N.3    48  VAL48      -0.1245
     42  CA        24.6000   16.0000   41.7630 C.3    48  VAL48       0.1561
     43  C         24.3950   14.7690   42.6590 C.2    48  VAL48       0.2260
     44  O         23.4200   14.6930   43.4100 O.2    48  VAL48      -0.2867
     45  CB        24.3600   15.6230   40.2730 C.3    48  VAL48       0.0252
     46  CG1       23.0310   14.8980   40.0980 C.3    48  VAL48       0.0019
     47  CG2       24.4100   16.8600   39.3930 C.3    48  VAL48       0.0019
     48  N         28.0930   17.3350   37.3370 N.3    54  ALA54      -0.1231
     49  CA        27.4460   17.5140   36.0390 C.3    54  ALA54       0.1694
     50  C         27.5690   18.9290   35.4970 C.2    54  ALA54       0.2592
     51  O         27.7310   19.8940   36.2420 O.2    54  ALA54      -0.2718
     52  CB        25.9830   17.0910   36.1020 C.3    54  ALA54       0.0304
     53  N         27.4520   19.0390   34.1810 N.am   55  CYS55      -0.1956
     54  CA        27.8340   20.2460   33.4850 C.3    55  CYS55       0.1843
     55  C         27.1820   20.3350   32.1310 C.2    55  CYS55       0.2625
     56  O         27.0300   19.3250   31.4460 O.2    55  CYS55      -0.2714
     57  CB        29.3340   20.2170   33.2500 C.3    55  CYS55       0.0997
     58  SG        30.0590   21.8000   33.4360 S.3    55  CYS55      -0.0797
     59  N         26.8390   21.5530   31.7260 N.am   56  ASN56      -0.1972
     60  CA        26.3260   21.7870   30.3830 C.3    56  ASN56       0.1688
     61  C         27.2290   22.7100   29.5790 C.2    56  ASN56       0.2292
     62  O         27.5730   23.8090   30.0220 O.2    56  ASN56      -0.2864
     63  CB        24.8950   22.3280   30.4330 C.3    56  ASN56       0.1181
     64  CG        23.9260   21.3520   31.0630 C.2    56  ASN56       0.2629
     65  OD1       24.0450   20.1410   30.8770 O.2    56  ASN56      -0.2716
     66  ND2       22.9630   21.8730   31.8220 N.am   56  ASN56      -0.0877
     67  N         27.2930   24.9570   26.4240 N.3    58  ILE58      -0.1245
     68  CA        26.2960   25.6170   25.5830 C.3    58  ILE58       0.1561
     69  C         26.9810   26.3790   24.4660 C.2    58  ILE58       0.2260
     70  O         27.7710   27.2890   24.7110 O.2    58  ILE58      -0.2867
     71  CB        25.3890   26.5560   26.4030 C.3    58  ILE58       0.0252
     72  CG1       24.6550   25.7850   27.5140 C.3    58  ILE58       0.0019
     73  CG2       24.4270   27.3260   25.4940 C.3    58  ILE58       0.0019
     74  CD1       24.0200   24.4830   27.1010 C.3    58  ILE58       0.0001
     75  N         19.6160   27.7650   20.9930 N.3    62  PRO62      -0.2116
     76  CA        19.0690   26.4340   21.2110 C.3    62  PRO62       0.1372
     77  C         18.9540   25.5850   19.9380 C.2    62  PRO62       0.2244
     78  O         19.1600   24.3660   19.9820 O.2    62  PRO62      -0.2868
     79  CB        17.6920   26.7390   21.7760 C.3    62  PRO62       0.0268
     80  CG        17.9090   27.9500   22.5470 C.3    62  PRO62       0.0207
     81  CD        18.8500   28.7790   21.7310 C.3    62  PRO62       0.0892
     82  N         21.8410   12.1130   22.2210 N.3   100  ARG100     -0.1231
     83  CA        20.6700   11.9250   23.0270 C.3   100  ARG100      0.1694
     84  C         19.9080   13.2050   22.8460 C.2   100  ARG100      0.2592
     85  O         20.3740   14.2600   23.2850 O.2   100  ARG100     -0.2718
     86  CB        21.0540   11.7210   24.4890 C.3   100  ARG100      0.0321
     87  CG        19.9220   11.1910   25.3530 C.3   100  ARG100      0.0489
     88  CD        20.3760   10.9600   26.7790 C.3   100  ARG100      0.2205
     89  NE        20.7480   12.2140   27.4270 N.pl3 100  ARG100     -0.0865
     90  CZ        21.4670   12.2880   28.5410 C.cat 100  ARG100      0.5346
     91  NH1       21.8840   11.1770   29.1190 N.pl3 100  ARG100      0.1354
     92  NH2       21.7680   13.4650   29.0790 N.pl3 100  ARG100      0.1354
     93  N         18.7570   13.1220   22.1730 N.am  101  LEU101     -0.1966
     94  CA        17.9460   14.3260   21.9050 C.3   101  LEU101      0.1728
     95  C         17.1380   14.7580   23.1280 C.2   101  LEU101      0.2616
     96  O         17.0880   14.0460   24.1300 O.2   101  LEU101     -0.2715
     97  CB        17.0480   14.1420   20.6860 C.3   101  LEU101      0.0311
     98  CG        17.7430   13.9390   19.3380 C.3   101  LEU101      0.0022
     99  CD1       18.2240   12.5350   19.2570 C.3   101  LEU101      0.0001
    100  CD2       16.7770   14.1410   18.2100 C.3   101  LEU101      0.0001
    101  N         16.5350   15.9390   23.0620 N.am  102  MET102     -0.1963
    102  CA        15.6530   16.3880   24.1350 C.3   102  MET102      0.1736
    103  C         14.3890   15.5420   24.1010 C.2   102  MET102      0.2616
    104  O         14.0880   14.9160   23.0760 O.2   102  MET102     -0.2715
    105  CB        15.3120   17.8690   23.9910 C.3   102  MET102      0.0427
    106  CG        16.5210   18.7770   23.7960 C.3   102  MET102      0.0599
    107  SD        17.7220   18.8650   25.1580 S.3   102  MET102     -0.1393
    108  CE        16.8970   19.9230   26.3630 C.3   102  MET102      0.0692
    109  N         13.6610   15.5010   25.2190 N.am  103  ALA103     -0.1977
    110  CA        12.3700   14.8100   25.2660 C.3   103  ALA103      0.1597
    111  C         11.4930   15.3540   24.1530 C.2   103  ALA103      0.2287
    112  O         11.6020   16.5400   23.8120 O.2   103  ALA103     -0.2864
    113  CB        11.7040   15.0430   26.5790 C.3   103  ALA103      0.0319
    114  N         14.5760   19.5750   19.7000 N.3   125  GLN125     -0.1245
    115  CA        15.8000   20.2040   19.1950 C.3   125  GLN125      0.1566
    116  C         16.6300   19.2530   18.3090 C.2   125  GLN125      0.2260
    117  O         17.8140   18.9710   18.5670 O.2   125  GLN125     -0.2867
    118  CB        16.6260   20.7400   20.3630 C.3   125  GLN125      0.0367
    119  CG        16.2900   22.1480   20.7680 C.3   125  GLN125      0.0905
    120  CD        16.7270   22.4790   22.1980 C.2   125  GLN125      0.2608
    121  OE1       16.5400   21.6910   23.1230 O.2   125  GLN125     -0.2717
    122  NE2       17.2930   23.6600   22.3810 N.am  125  GLN125     -0.0878
    123  N         15.3980   11.2230   27.2860 N.3   191  PRO191     -0.2116
    124  CA        14.5070   11.0370   28.4140 C.3   191  PRO191      0.1372
    125  C         13.0480   11.0400   27.9280 C.2   191  PRO191      0.2244
    126  O         12.7720   11.4130   26.7790 O.2   191  PRO191     -0.2868
    127  CB        14.7980   12.2550   29.2970 C.3   191  PRO191      0.0268
    128  CG        15.4630   13.2360   28.4100 C.3   191  PRO191      0.0207
    129  CD        16.2400   12.4180   27.4430 C.3   191  PRO191      0.0892
@<TRIPOS>BOND
     1   100    98    1
     2   116   117    2
     3   116   115    1
     4   115   114    1
     5   115   118    1
     6    99    98    1
     7    98    97    1
     8    15    14    2
     9    77    78    2
    10    77    76    1
    11    14    13    1
    12   118   119    1
    13    97    94    1
    14   119   120    1
    15    75    76    1
    16    75    81    1
    17    76    79    1
    18    18    17    2
    19    13    12    1
    20    13    16    1
    21    81    80    1
    22    79    80    1
    23    94    93    1
    24    94    95    1
    25    17    19   am
    26    17    16    1
    27    93    84   am
    28   120   122   am
    29   120   121    2
    30    82    83    1
    31    20    21    1
    32    84    83    1
    33    84    85    2
    34    83    86    1
    35   101    95   am
    36   101   102    1
    37   104   103    2
    38    95    96    2
    39    23    22    2
    40   106   105    1
    41   106   107    1
    42    21    22    1
    43    21    24    1
    44   112   111    2
    45   105   102    1
    46   103   102    1
    47   103   109   am
    48   111   110    1
    49    24    25    1
    50    69    70    2
    51    69    68    1
    52    86    87    1
    53     3     4    2
    54     3     2    1
    55   107   108    1
    56     7     9   ar
    57     7     6   ar
    58   109   110    1
    59   110   113    1
    60     2     5    1
    61     2     1    1
    62    87    88    1
    63    73    71    1
    64     9    11   ar
    65    68    71    1
    66    68    67    1
    67     5     6    1
    68    25    27   am
    69    25    26    2
    70     6     8   ar
    71    71    72    1
    72   126   125    2
    73    88    89    1
    74    11    10   ar
    75    74    72    1
    76   123   129    1
    77   123   124    1
    78    28    29    1
    79    89    90    2
    80   129   128    1
    81     8    10   ar
    82   125   124    1
    83   128   127    1
    84   124   127    1
    85    90    92    1
    86    90    91    1
    87    31    30    2
    88    29    32    1
    89    29    30    1
    90    32    33    1
    91    61    62    2
    92    61    60    1
    93    60    63    1
    94    60    59    1
    95    63    64    1
    96    65    64    2
    97    64    66   am
    98    56    55    2
    99    59    55   am
   100    55    54    1
   101    34    35    1
   102    57    58    1
   103    57    54    1
   104    54    53    1
   105    37    36    2
   106    40    38    1
   107    35    38    1
   108    35    36    1
   109    38    39    1
   110    53    50   am
   111    50    49    1
   112    50    51    2
   113    49    52    1
   114    49    48    1
   115    47    45    1
   116    46    45    1
   117    45    42    1
   118    42    41    1
   119    42    43    1
   120    43    44    2
