@<TRIPOS>MOLECULE
tmp/2ermA00.pdb
 111 107 0 0 0
SMALL
GASTEIGER

@<TRIPOS>ATOM
      1  N          9.4000   -3.2410   -3.7210 N.3    10  SER10      -0.1202
      2  CA        10.6430   -3.2740   -4.4830 C.3    10  SER10       0.2020
      3  C         11.8730   -2.7860   -3.7070 C.2    10  SER10       0.2619
      4  O         12.9890   -3.0020   -4.1750 O.2    10  SER10      -0.2717
      5  CB        10.4660   -2.4930   -5.7820 C.3    10  SER10       0.2103
      6  OG         9.3420   -2.9920   -6.4720 O.3    10  SER10      -0.2182
      7  N         11.6990   -2.1250   -2.5560 N.am   11  ASN11      -0.1960
      8  CA        12.7900   -1.7480   -1.6520 C.3    11  ASN11       0.1819
      9  C         13.0760   -2.8720   -0.6540 C.2    11  ASN11       0.2621
     10  O         12.1840   -3.2780    0.0900 O.2    11  ASN11      -0.2715
     11  CB        12.4090   -0.4640   -0.9130 C.3    11  ASN11       0.1195
     12  CG        13.4550    0.0070    0.0940 C.2    11  ASN11       0.2630
     13  OD1       14.6570   -0.0360   -0.1520 O.2    11  ASN11      -0.2716
     14  ND2       13.0050    0.4520    1.2550 N.am   11  ASN11      -0.0877
     15  N         14.2990   -3.4040   -0.6350 N.am   12  GLY12      -0.1954
     16  CA        14.6900   -4.4480    0.3170 C.3    12  GLY12       0.1869
     17  C         14.1410   -5.8380   -0.0430 C.2    12  GLY12       0.2309
     18  O         14.8790   -6.8260    0.0050 O.2    12  GLY12      -0.2863
     19  N          7.4730    0.7470    1.7860 N.3   104  LEU104     -0.1231
     20  CA         8.1140    0.1500    2.9670 C.3   104  LEU104      0.1693
     21  C          9.5620    0.6280    3.1910 C.2   104  LEU104      0.2592
     22  O         10.3850    0.6200    2.2760 O.2   104  LEU104     -0.2718
     23  CB         8.1120   -1.3860    2.8880 C.3   104  LEU104      0.0284
     24  CG         6.7280   -2.0420    2.7530 C.3   104  LEU104      0.0019
     25  CD1        6.8930   -3.5620    2.8400 C.3   104  LEU104      0.0001
     26  CD2        5.7710   -1.5960    3.8640 C.3   104  LEU104      0.0001
     27  N          9.8750    0.9830    4.4420 N.am  105  LYS105     -0.1966
     28  CA        11.2210    1.1660    4.9850 C.3   105  LYS105      0.1728
     29  C         12.0490   -0.1420    4.9300 C.2   105  LYS105      0.2616
     30  O         11.5450   -1.2050    5.3010 O.2   105  LYS105     -0.2715
     31  CB        11.0720    1.6590    6.4380 C.3   105  LYS105      0.0311
     32  CG        12.3310    2.3380    7.0050 C.3   105  LYS105      0.0038
     33  CD        12.1700    3.8660    7.0110 C.3   105  LYS105      0.0206
     34  CE        13.4680    4.5540    7.4650 C.3   105  LYS105      0.1093
     35  NZ        13.3830    6.0280    7.3810 N.3   105  LYS105     -0.1314
     36  N         13.3120   -0.0580    4.4850 N.am  106  LYS106     -0.1977
     37  CA        14.2490   -1.1460    4.1620 C.3   106  LYS106      0.1596
     38  C         14.1470   -2.4120    5.0190 C.2   106  LYS106      0.2287
     39  O         14.1120   -3.5260    4.4990 O.2   106  LYS106     -0.2864
     40  CB        15.6890   -0.6020    4.2550 C.3   106  LYS106      0.0298
     41  CG        16.7280   -1.4720    3.5250 C.3   106  LYS106      0.0038
     42  CD        16.7240   -1.2770    2.0010 C.3   106  LYS106      0.0206
     43  CE        17.2460    0.1140    1.6120 C.3   106  LYS106      0.1093
     44  NZ        17.3640    0.2670    0.1510 N.3   106  LYS106     -0.1314
     45  N          6.4540   -0.0950    7.5340 N.3   110  CYS110     -0.1221
     46  CA         5.8420    1.0200    6.8240 C.3   110  CYS110      0.1808
     47  C          6.7740    2.2270    6.6640 C.2   110  CYS110      0.2601
     48  O          7.4200    2.6350    7.6270 O.2   110  CYS110     -0.2717
     49  CB         4.5730    1.4410    7.5700 C.3   110  CYS110      0.0970
     50  SG         4.9070    1.8590    9.3030 S.3   110  CYS110     -0.0800
     51  N          6.8010    2.8250    5.4680 N.am  111  LYS111     -0.1965
     52  CA         7.3340    4.1660    5.2680 C.3   111  LYS111      0.1728
     53  C          6.1760    5.1730    5.2350 C.2   111  LYS111      0.2616
     54  O          5.1630    4.9590    4.5730 O.2   111  LYS111     -0.2715
     55  CB         8.1990    4.2180    4.0040 C.3   111  LYS111      0.0311
     56  CG         9.2260    5.3480    4.1290 C.3   111  LYS111      0.0038
     57  CD        10.1960    5.3190    2.9440 C.3   111  LYS111      0.0206
     58  CE        11.2690    6.4230    2.9930 C.3   111  LYS111      0.1093
     59  NZ        12.1430    6.3210    4.1830 N.3   111  LYS111     -0.1314
     60  N          6.3210    6.2520    5.9970 N.am  112  ARG112     -0.1977
     61  CA         5.2940    7.2290    6.3120 C.3   112  ARG112      0.1597
     62  C          5.3950    8.4520    5.3840 C.2   112  ARG112      0.2287
     63  O          6.4640    9.0550    5.2650 O.2   112  ARG112     -0.2864
     64  CB         5.4630    7.5660    7.8110 C.3   112  ARG112      0.0334
     65  CG         4.8430    8.8840    8.3110 C.3   112  ARG112      0.0492
     66  CD         5.9200    9.8850    8.7610 C.3   112  ARG112      0.2205
     67  NE         6.9180   10.0900    7.6950 N.pl3 112  ARG112     -0.0865
     68  CZ         7.8530   11.0280    7.5740 C.cat 112  ARG112      0.5346
     69  NH1        8.0670   11.9310    8.5180 N.pl3 112  ARG112      0.1354
     70  NH2        8.5720   11.0430    6.4650 N.pl3 112  ARG112      0.1354
     71  N          5.4530   12.1760    3.6560 N.3   114  PRO114     -0.2102
     72  CA         5.1790   13.1100    2.5760 C.3   114  PRO114      0.1504
     73  C          6.3810   13.3640    1.6640 C.2   114  PRO114      0.2575
     74  O          6.5090   14.4280    1.0670 O.2   114  PRO114     -0.2718
     75  CB         4.6620   14.3520    3.2920 C.3   114  PRO114      0.0282
     76  CG         5.5570   14.3890    4.5250 C.3   114  PRO114      0.0208
     77  CD         5.5140   12.9120    4.9180 C.3   114  PRO114      0.0893
     78  N          7.2170   12.3390    1.5060 N.am  115  ARG115     -0.1980
     79  CA         8.2200   12.2400    0.4530 C.3   115  ARG115      0.1597
     80  C          8.2420   10.8390   -0.1840 C.2   115  ARG115      0.2287
     81  O          9.1100   10.5470   -1.0020 O.2   115  ARG115     -0.2864
     82  CB         9.5880   12.7020    0.9780 C.3   115  ARG115      0.0334
     83  CG        10.0080   12.0960    2.3240 C.3   115  ARG115      0.0492
     84  CD        10.0530   10.5660    2.3030 C.3   115  ARG115      0.2205
     85  NE        10.6620   10.0650    3.5420 N.pl3 115  ARG115     -0.0865
     86  CZ        11.9580    9.9430    3.8190 C.cat 115  ARG115      0.5346
     87  NH1       12.9190   10.1660    2.9370 N.pl3 115  ARG115      0.1354
     88  NH2       12.3040    9.5390    5.0180 N.pl3 115  ARG115      0.1354
     89  N         12.3260    6.6520   -5.2780 N.3   120  GLN120     -0.1231
     90  CA        12.7090    5.3850   -4.6680 C.3   120  GLN120      0.1698
     91  C         11.9970    4.1880   -5.3070 C.2   120  GLN120      0.2592
     92  O         10.8480    4.2980   -5.7330 O.2   120  GLN120     -0.2718
     93  CB        12.3280    5.4350   -3.1880 C.3   120  GLN120      0.0381
     94  CG        13.3840    6.1500   -2.3390 C.3   120  GLN120      0.0905
     95  CD        13.1850    5.8500   -0.8600 C.2   120  GLN120      0.2608
     96  OE1       13.0080    6.7560   -0.0530 O.2   120  GLN120     -0.2717
     97  NE2       13.1770    4.5760   -0.4970 N.am  120  GLN120     -0.0878
     98  N         12.6230    3.0060   -5.2720 N.am  121  LYS121     -0.1966
     99  CA        11.8890    1.7730   -5.5600 C.3   121  LYS121      0.1728
    100  C         10.8020    1.4830   -4.5090 C.2   121  LYS121      0.2616
    101  O          9.8060    0.8550   -4.8470 O.2   121  LYS121     -0.2715
    102  CB        12.8070    0.5540   -5.7180 C.3   121  LYS121      0.0311
    103  CG        14.0450    0.8010   -6.5920 C.3   121  LYS121      0.0038
    104  CD        14.7290   -0.5100   -7.0220 C.3   121  LYS121      0.0206
    105  CE        15.6910   -1.1070   -5.9820 C.3   121  LYS121      0.1093
    106  NZ        15.0260   -1.4370   -4.7060 N.3   121  LYS121     -0.1314
    107  N         10.9650    1.9190   -3.2490 N.am  122  ALA122     -0.1977
    108  CA         9.9930    1.7310   -2.1620 C.3   122  ALA122      0.1597
    109  C          8.5090    1.8530   -2.5490 C.2   122  ALA122      0.2287
    110  O          7.6780    1.1110   -2.0270 O.2   122  ALA122     -0.2864
    111  CB        10.3280    2.6960   -1.0200 C.3   122  ALA122      0.0319
@<TRIPOS>BOND
     1   104   103    1
     2   104   105    1
     3   103   102    1
     4     6     5    1
     5   105   106    1
     6     5     2    1
     7    92    91    2
     8   102    99    1
     9    99    98    1
    10    99   100    1
    11    91    98   am
    12    91    90    1
    13    89    90    1
    14   101   100    2
    15    90    93    1
    16   100   107   am
    17     2     1    1
    18     2     3    1
    19     4     3    2
    20     3     7   am
    21   107   108    1
    22    93    94    1
    23     7     8    1
    24   109   108    1
    25   109   110    2
    26    94    95    1
    27   108   111    1
    28     8    11    1
    29     8     9    1
    30    81    80    2
    31    11    12    1
    32    95    97   am
    33    95    96    2
    34     9    15   am
    35     9    10    2
    36    15    16    1
    37    80    79    1
    38    13    12    2
    39    17    18    2
    40    17    16    1
    41    12    14   am
    42    44    43    1
    43    79    82    1
    44    79    78    1
    45    82    83    1
    46    74    73    2
    47    78    73   am
    48    43    42    1
    49    73    72    1
    50    19    20    1
    51    42    41    1
    52    22    21    2
    53    84    83    1
    54    84    85    1
    55    72    75    1
    56    72    71    1
    57    24    25    1
    58    24    23    1
    59    24    26    1
    60    23    20    1
    61    87    86    1
    62    57    58    1
    63    57    56    1
    64    20    21    1
    65    58    59    1
    66    21    27   am
    67    75    76    1
    68    41    40    1
    69    85    86    2
    70    71    77    1
    71    86    88    1
    72    55    56    1
    73    55    52    1
    74    37    40    1
    75    37    36    1
    76    37    38    1
    77    27    28    1
    78    36    29   am
    79    39    38    2
    80    76    77    1
    81    54    53    2
    82    29    28    1
    83    29    30    2
    84    28    31    1
    85    53    52    1
    86    53    60   am
    87    63    62    2
    88    52    51    1
    89    62    61    1
    90    51    47   am
    91    60    61    1
    92    61    64    1
    93    31    32    1
    94    70    68    1
    95    47    46    1
    96    47    48    2
    97    46    45    1
    98    46    49    1
    99    32    33    1
   100    33    34    1
   101    35    34    1
   102    49    50    1
   103    68    67    2
   104    68    69    1
   105    67    66    1
   106    64    65    1
   107    65    66    1
