@<TRIPOS>MOLECULE
tmp/2erpA01.pdb
 126 123 0 0 0
SMALL
GASTEIGER

@<TRIPOS>ATOM
      1  N         26.7400   21.7140  100.1370 N.3   115  PRO115     -0.2102
      2  CA        27.7260   22.0620   99.1110 C.3   115  PRO115      0.1504
      3  C         27.6350   21.2430   97.8210 C.2   115  PRO115      0.2576
      4  O         28.1630   21.6530   96.7880 O.2   115  PRO115     -0.2718
      5  CB        29.0520   21.8570   99.8350 C.3   115  PRO115      0.0282
      6  CG        28.7450   20.7180  100.7500 C.3   115  PRO115      0.0208
      7  CD        27.3990   21.1110  101.3080 C.3   115  PRO115      0.0893
      8  N         26.9680   20.0940   97.8790 N.am  116  THR116     -0.1939
      9  CA        26.8290   19.2380   96.7040 C.3   116  THR116      0.2028
     10  C         26.4020   20.0240   95.4660 C.2   116  THR116      0.2642
     11  O         25.4330   20.7830   95.5000 O.2   116  THR116     -0.2714
     12  CB        25.8020   18.1110   96.9450 C.3   116  THR116      0.1808
     13  OG1       24.5450   18.6840   97.3290 O.3   116  THR116     -0.2208
     14  CG2       26.2810   17.1770   98.0410 C.3   116  THR116      0.0379
     15  N         27.1320   19.8320   94.3720 N.am  117  ALA117     -0.1963
     16  CA        26.8470   20.5160   93.1150 C.3   117  ALA117      0.1728
     17  C         26.5470   19.5090   92.0120 C.2   117  ALA117      0.2617
     18  O         26.4120   19.8740   90.8440 O.2   117  ALA117     -0.2715
     19  CB        28.0280   21.3860   92.7160 C.3   117  ALA117      0.0334
     20  N         26.4450   18.2390   92.3890 N.am  118  GLY118     -0.1940
     21  CA        26.1670   17.1970   91.4220 C.3   118  GLY118      0.2014
     22  C         26.2670   15.8210   92.0520 C.2   118  GLY118      0.2639
     23  O         26.7250   15.6820   93.1860 O.2   118  GLY118     -0.2714
     24  N         25.8500   14.7980   91.3150 N.am  119  LEU119     -0.1963
     25  CA        25.8910   13.4370   91.8290 C.3   119  LEU119      0.1728
     26  C         25.8220   12.4390   90.6740 C.2   119  LEU119      0.2616
     27  O         25.2120   12.7180   89.6420 O.2   119  LEU119     -0.2715
     28  CB        24.7150   13.2230   92.7870 C.3   119  LEU119      0.0311
     29  CG        24.8740   12.2180   93.9280 C.3   119  LEU119      0.0022
     30  CD1       26.0060   12.6560   94.8430 C.3   119  LEU119      0.0001
     31  CD2       23.5690   12.1280   94.7050 C.3   119  LEU119      0.0001
     32  N         26.4520   11.2810   90.8470 N.am  120  GLY120     -0.1955
     33  CA        26.4430   10.2720   89.8020 C.3   120  GLY120      0.1869
     34  C         26.8710    8.9060   90.3030 C.2   120  GLY120      0.2309
     35  O         27.9230    8.7670   90.9280 O.2   120  GLY120     -0.2863
     36  N         25.3080   25.3910   88.8700 N.3   138  HIS138     -0.1241
     37  CA        25.7090   26.2330   89.9920 C.3   138  HIS138      0.1621
     38  C         26.4780   27.5140   89.6850 C.2   138  HIS138      0.2264
     39  O         26.2140   28.5550   90.2880 O.2   138  HIS138     -0.2867
     40  CB        26.5130   25.3950   90.9860 C.3   138  HIS138      0.0745
     41  CG        27.8300   24.9300   90.4540 C.ar  138  HIS138      0.0817
     42  ND1       28.9090   25.7730   90.2950 N.ar  138  HIS138     -0.2268
     43  CD2       28.2430   23.7080   90.0380 C.ar  138  HIS138      0.1154
     44  CE1       29.9300   25.0930   89.8050 C.ar  138  HIS138      0.1986
     45  NE2       29.5520   23.8370   89.6400 N.ar  138  HIS138     -0.2212
     46  N         33.1880   20.7430   84.4630 N.3   147  ILE147     -0.1231
     47  CA        34.0120   19.9150   85.3330 C.3   147  ILE147      0.1692
     48  C         33.0980   19.1450   86.2780 C.2   147  ILE147      0.2591
     49  O         33.3810   18.0030   86.6400 O.2   147  ILE147     -0.2718
     50  CB        34.9810   20.7630   86.1760 C.3   147  ILE147      0.0266
     51  CG1       35.9100   21.5590   85.2590 C.3   147  ILE147      0.0019
     52  CG2       35.8050   19.8630   87.0830 C.3   147  ILE147      0.0020
     53  CD1       36.8760   22.4520   86.0050 C.3   147  ILE147      0.0001
     54  N         32.0000   19.7810   86.6720 N.am  148  ALA148     -0.1980
     55  CA        31.0410   19.1560   87.5710 C.3   148  ALA148      0.1597
     56  C         30.4410   17.9360   86.8900 C.2   148  ALA148      0.2287
     57  O         30.3680   16.8560   87.4750 O.2   148  ALA148     -0.2864
     58  CB        29.9410   20.1450   87.9380 C.3   148  ALA148      0.0319
     59  N         32.8440   15.2410   86.3470 N.3   151  HIS151     -0.1226
     60  CA        33.0550   14.5810   87.6270 C.3   151  HIS151      0.1752
     61  C         32.0360   13.4600   87.8300 C.2   151  HIS151      0.2595
     62  O         32.3970   12.3240   88.1400 O.2   151  HIS151     -0.2718
     63  CB        32.9240   15.5980   88.7630 C.3   151  HIS151      0.0759
     64  CG        33.1370   15.0170   90.1250 C.ar  151  HIS151      0.0818
     65  ND1       34.3840   14.6850   90.6070 N.ar  151  HIS151     -0.2268
     66  CD2       32.2570   14.6920   91.1020 C.ar  151  HIS151      0.1154
     67  CE1       34.2640   14.1840   91.8230 C.ar  151  HIS151      0.1986
     68  NE2       32.9850   14.1770   92.1490 N.ar  151  HIS151     -0.2212
     69  N         30.7630   13.7880   87.6540 N.am  152  GLU152     -0.1979
     70  CA        29.7010   12.8100   87.8230 C.3   152  GLU152      0.1602
     71  C         29.8950   11.6780   86.8230 C.2   152  GLU152      0.2287
     72  O         29.8190   10.5030   87.1800 O.2   152  GLU152     -0.2864
     73  CB        28.3390   13.4770   87.6270 C.3   152  GLU152      0.0415
     74  CG        28.2220   14.8330   88.3210 C.3   152  GLU152      0.1163
     75  CD        28.6060   14.7930   89.7960 C.2   152  GLU152      0.3649
     76  OE1       28.7150   15.8760   90.4140 O.co2 152  GLU152     -0.2457
     77  OE2       28.7980   13.6870   90.3430 O.co2 152  GLU152     -0.2457
     78  N         32.4020    9.2500   87.8900 N.3   155  HIS155     -0.1241
     79  CA        31.9260    8.2030   88.7810 C.3   155  HIS155      0.1621
     80  C         31.2920    7.1020   87.9450 C.2   155  HIS155      0.2264
     81  O         31.5830    5.9220   88.1300 O.2   155  HIS155     -0.2867
     82  CB        30.8950    8.7560   89.7670 C.3   155  HIS155      0.0745
     83  CG        31.4790    9.6560   90.8100 C.ar  155  HIS155      0.0817
     84  ND1       32.6160    9.3290   91.5180 N.ar  155  HIS155     -0.2268
     85  CD2       31.0630   10.8520   91.2910 C.ar  155  HIS155      0.1154
     86  CE1       32.8750   10.2860   92.3910 C.ar  155  HIS155      0.1986
     87  NE2       31.9480   11.2200   92.2750 N.ar  155  HIS155     -0.2212
     88  N         36.5990    9.7930   94.1220 N.3   161  HIS161     -0.1241
     89  CA        37.2490   11.0100   94.6010 C.3   161  HIS161      0.1621
     90  C         38.7360   10.8090   94.8500 C.2   161  HIS161      0.2264
     91  O         39.1660    9.7410   95.2910 O.2   161  HIS161     -0.2867
     92  CB        36.5700   11.4910   95.8850 C.3   161  HIS161      0.0745
     93  CG        35.1470   11.9130   95.6900 C.ar  161  HIS161      0.0817
     94  ND1       34.3030   12.1920   96.7420 N.ar  161  HIS161     -0.2268
     95  CD2       34.4210   12.1040   94.5640 C.ar  161  HIS161      0.1154
     96  CE1       33.1170   12.5340   96.2720 C.ar  161  HIS161      0.1986
     97  NE2       33.1610   12.4890   94.9530 N.ar  161  HIS161     -0.2212
     98  N         39.7340   16.6070   88.1520 N.3   174  VAL174     -0.1245
     99  CA        38.2920   16.4920   87.9610 C.3   174  VAL174      0.1561
    100  C         37.6040   15.7360   89.0940 C.2   174  VAL174      0.2260
    101  O         36.5660   16.1660   89.5970 O.2   174  VAL174     -0.2867
    102  CB        37.9630   15.7770   86.6360 C.3   174  VAL174      0.0252
    103  CG1       36.4570   15.7290   86.4320 C.3   174  VAL174      0.0019
    104  CG2       38.6360   16.4960   85.4780 C.3   174  VAL174      0.0019
    105  N         38.1930   15.6040   92.0630 N.3   176  ALA176     -0.1231
    106  CA        38.5180   16.2020   93.3490 C.3   176  ALA176      0.1694
    107  C         37.2240   16.3260   94.1480 C.2   176  ALA176      0.2593
    108  O         36.1950   16.7390   93.6110 O.2   176  ALA176     -0.2718
    109  CB        39.1450   17.5760   93.1490 C.3   176  ALA176      0.0304
    110  N         37.2770   15.9580   95.4240 N.am  177  GLY177     -0.1942
    111  CA        36.0950   16.0380   96.2620 C.3   177  GLY177      0.2014
    112  C         35.5420   17.4470   96.3360 C.2   177  GLY177      0.2639
    113  O         34.3300   17.6490   96.3880 O.2   177  GLY177     -0.2714
    114  N         36.4410   18.4270   96.3440 N.am  178  ALA178     -0.1963
    115  CA        36.0470   19.8270   96.4150 C.3   178  ALA178      0.1728
    116  C         36.2120   20.4950   95.0560 C.2   178  ALA178      0.2616
    117  O         37.2300   20.3220   94.3880 O.2   178  ALA178     -0.2715
    118  CB        36.8880   20.5510   97.4530 C.3   178  ALA178      0.0334
    119  N         35.2030   21.2600   94.6530 N.am  179  LEU179     -0.1977
    120  CA        35.2370   21.9550   93.3750 C.3   179  LEU179      0.1596
    121  C         35.7930   23.3640   93.5370 C.2   179  LEU179      0.2287
    122  O         35.1120   24.2590   94.0400 O.2   179  LEU179     -0.2864
    123  CB        33.8300   22.0200   92.7730 C.3   179  LEU179      0.0297
    124  CG        33.6510   22.7590   91.4420 C.3   179  LEU179      0.0022
    125  CD1       34.5130   22.1180   90.3640 C.3   179  LEU179      0.0001
    126  CD2       32.1860   22.7240   91.0400 C.3   179  LEU179      0.0001
@<TRIPOS>BOND
     1    46    47    1
     2    51    53    1
     3    51    50    1
     4    47    50    1
     5    47    48    1
     6   104   102    1
     7    50    52    1
     8    48    49    2
     9    48    54   am
    10    59    60    1
    11   103   102    1
    12   102    99    1
    13    54    55    1
    14    71    72    2
    15    71    70    1
    16    56    57    2
    17    56    55    1
    18    55    58    1
    19    60    61    1
    20    60    63    1
    21    73    70    1
    22    73    74    1
    23    69    70    1
    24    69    61   am
    25    61    62    2
    26    78    79    1
    27    80    81    2
    28    80    79    1
    29    99    98    1
    30    99   100    1
    31    74    75    1
    32    63    64    1
    33    79    82    1
    34    36    37    1
    35   100   101    2
    36    45    44   ar
    37    45    43   ar
    38    27    26    2
    39    38    37    1
    40    38    39    2
    41    82    83    1
    42    75    77   ar
    43    75    76   ar
    44    33    34    1
    45    33    32    1
    46    44    42   ar
    47    37    40    1
    48    43    41   ar
    49    64    65   ar
    50    64    66   ar
    51    42    41   ar
    52    34    35    2
    53   125   124    1
    54    41    40    1
    55    65    67   ar
    56    26    32   am
    57    26    25    1
    58    83    85   ar
    59    83    84   ar
    60    18    17    2
    61   126   124    1
    62    66    68   ar
    63    85    87   ar
    64    24    25    1
    65    24    22   am
    66    21    22    1
    67    21    20    1
    68   124   123    1
    69    84    86   ar
    70    67    68   ar
    71    25    28    1
    72    17    20   am
    73    17    16    1
    74    22    23    2
    75   105   106    1
    76    87    86   ar
    77    19    16    1
    78   123   120    1
    79    28    29    1
    80    16    15    1
    81   109   106    1
    82   106   107    1
    83   120   121    1
    84   120   119    1
    85   121   122    2
    86   108   107    2
    87    29    31    1
    88    29    30    1
    89    88    89    1
    90   107   110   am
    91    15    10   am
    92   117   116    2
    93    95    97   ar
    94    95    93   ar
    95    89    90    1
    96    89    92    1
    97   119   116   am
    98    90    91    2
    99    97    96   ar
   100   116   115    1
   101   110   111    1
   102    10    11    2
   103    10     9    1
   104    93    92    1
   105    93    94   ar
   106   111   112    1
   107    96    94   ar
   108   112   114   am
   109   112   113    2
   110   114   115    1
   111   115   118    1
   112     9    12    1
   113     9     8    1
   114     4     3    2
   115    12    13    1
   116    12    14    1
   117     3     8   am
   118     3     2    1
   119     2     5    1
   120     2     1    1
   121     5     6    1
   122     1     7    1
   123     6     7    1
