@<TRIPOS>MOLECULE
tmp/2ervA02.pdb
 90 85 0 0 0
SMALL
GASTEIGER

@<TRIPOS>ATOM
      1  N         12.2710   14.8290   29.4370 N.3     7  VAL7       -0.1231
      2  CA        12.3970   14.7260   30.8920 C.3     7  VAL7        0.1692
      3  C         13.8310   14.9350   31.2670 C.2     7  VAL7        0.2593
      4  O         14.7340   14.4190   30.6150 O.2     7  VAL7       -0.2718
      5  CB        11.9700   13.3220   31.3660 C.3     7  VAL7        0.0266
      6  CG1       11.9400   13.2530   32.9010 C.3     7  VAL7        0.0020
      7  CG2       10.6110   12.9950   30.8200 C.3     7  VAL7        0.0020
      8  N         14.0730   15.6220   32.3720 N.am    8  GLY8       -0.1942
      9  CA        15.4470   15.9420   32.7250 C.3     8  GLY8        0.2014
     10  C         15.5980   16.2600   34.1820 C.2     8  GLY8        0.2638
     11  O         14.6570   16.0610   34.9700 O.2     8  GLY8       -0.2714
     12  N         16.7820   16.7500   34.5470 N.am    9  ALA9       -0.1977
     13  CA        17.0560   17.1340   35.9380 C.3     9  ALA9        0.1597
     14  C         17.9260   18.3620   35.9920 C.2     9  ALA9        0.2287
     15  O         18.7110   18.6040   35.0660 O.2     9  ALA9       -0.2864
     16  CB        17.7860   15.9660   36.7230 C.3     9  ALA9        0.0319
     17  N         13.5920   17.5680   39.1400 N.3    15  MET15      -0.1245
     18  CA        13.0970   17.0940   37.7990 C.3    15  MET15       0.1570
     19  C         12.6300   18.2910   36.9780 C.2    15  MET15       0.2261
     20  O         12.1990   19.2650   37.5560 O.2    15  MET15      -0.2867
     21  CB        11.8830   16.1840   37.9920 C.3    15  MET15       0.0387
     22  CG        12.1690   14.8370   38.7010 C.3    15  MET15       0.0595
     23  SD        13.5310   13.9470   37.8940 S.3    15  MET15      -0.1393
     24  CE        12.9180   13.6620   36.2260 C.3    15  MET15       0.0692
     25  N         22.7680   23.5460   24.3520 N.3   108  ILE108     -0.1231
     26  CA        23.4560   22.6410   23.4010 C.3   108  ILE108      0.1692
     27  C         22.7930   21.2880   23.4440 C.2   108  ILE108      0.2593
     28  O         22.0550   20.9890   24.3750 O.2   108  ILE108     -0.2718
     29  CB        24.9440   22.4690   23.7260 C.3   108  ILE108      0.0266
     30  CG1       25.1280   22.0210   25.1740 C.3   108  ILE108      0.0019
     31  CG2       25.6750   23.7580   23.5090 C.3   108  ILE108      0.0020
     32  CD1       26.4620   21.3460   25.4390 C.3   108  ILE108      0.0001
     33  N         23.0520   20.4500   22.4540 N.am  109  GLY109     -0.1942
     34  CA        22.3460   19.1970   22.3560 C.3   109  GLY109      0.2014
     35  C         23.0110   18.3420   21.2740 C.2   109  GLY109      0.2638
     36  O         23.7780   18.8550   20.4370 O.2   109  GLY109     -0.2714
     37  N         22.6730   17.0580   21.2830 N.am  110  ALA110     -0.1977
     38  CA        23.1400   16.1180   20.2750 C.3   110  ALA110      0.1597
     39  C         22.1070   14.9900   20.1930 C.2   110  ALA110      0.2287
     40  O         21.4150   14.6740   21.1960 O.2   110  ALA110     -0.2864
     41  CB        24.5350   15.5680   20.6920 C.3   110  ALA110      0.0319
     42  N         19.8940   14.2610   23.5850 N.3   122  VAL122     -0.1231
     43  CA        20.0980   14.8750   24.8660 C.3   122  VAL122      0.1692
     44  C         20.2870   16.3860   24.6880 C.2   122  VAL122      0.2592
     45  O         20.7200   16.8800   23.6300 O.2   122  VAL122     -0.2718
     46  CB        21.3110   14.2450   25.6320 C.3   122  VAL122      0.0266
     47  CG1       20.9410   12.8000   26.0930 C.3   122  VAL122      0.0020
     48  CG2       22.5670   14.2480   24.7530 C.3   122  VAL122      0.0020
     49  N         19.9270   17.1170   25.7320 N.am  123  ARG123     -0.1966
     50  CA        20.0100   18.5790   25.6830 C.3   123  ARG123      0.1729
     51  C         20.5760   19.0460   27.0260 C.2   123  ARG123      0.2616
     52  O         20.2480   18.4750   28.0670 O.2   123  ARG123     -0.2715
     53  CB        18.5940   19.0860   25.5720 C.3   123  ARG123      0.0348
     54  CG        18.4420   20.2990   24.7640 C.3   123  ARG123      0.0492
     55  CD        17.2460   20.1930   23.8550 C.3   123  ARG123      0.2205
     56  NE        16.0350   19.8730   24.5960 N.pl3 123  ARG123     -0.0865
     57  CZ        14.8480   19.7390   24.0400 C.cat 123  ARG123      0.5346
     58  NH1       14.7570   19.9170   22.7530 N.pl3 123  ARG123      0.1354
     59  NH2       13.7590   19.4380   24.7720 N.pl3 123  ARG123      0.1354
     60  N         21.4050   20.0740   27.0150 N.am  124  ALA124     -0.1977
     61  CA        21.7480   20.7650   28.2690 C.3   124  ALA124      0.1597
     62  C         21.3390   22.2290   28.0510 C.2   124  ALA124      0.2287
     63  O         21.7320   22.8090   27.0360 O.2   124  ALA124     -0.2864
     64  CB        23.2490   20.6480   28.5110 C.3   124  ALA124      0.0319
     65  N         19.1930   19.2630   32.3010 N.3   142  TYR142     -0.1227
     66  CA        19.9150   18.2500   31.5010 C.3   142  TYR142      0.1736
     67  C         18.9340   17.1330   31.1680 C.2   142  TYR142      0.2596
     68  O         18.4750   16.4270   32.0750 O.2   142  TYR142     -0.2718
     69  CB        21.0920   17.6770   32.3220 C.3   142  TYR142      0.0548
     70  CG        22.0420   18.7580   32.8390 C.ar  142  TYR142     -0.0200
     71  CD1       23.0840   19.2240   32.0380 C.ar  142  TYR142     -0.0009
     72  CD2       21.9080   19.2870   34.1220 C.ar  142  TYR142     -0.0009
     73  CE1       23.9600   20.2320   32.4770 C.ar  142  TYR142      0.0417
     74  CE2       22.7950   20.2720   34.5850 C.ar  142  TYR142      0.0417
     75  CZ        23.8180   20.7300   33.7430 C.ar  142  TYR142      0.1957
     76  OH        24.6990   21.7240   34.1380 O.3   142  TYR142     -0.2866
     77  N         18.5830   16.9840   29.8780 N.am  143  SER143     -0.1938
     78  CA        17.3990   16.1880   29.5360 C.3   143  SER143      0.2055
     79  C         17.5700   15.2210   28.3590 C.2   143  SER143      0.2643
     80  O         18.4680   15.3710   27.5810 O.2   143  SER143     -0.2714
     81  CB        16.2120   17.1060   29.2590 C.3   143  SER143      0.2130
     82  OG        16.4460   17.9030   28.1020 O.3   143  SER143     -0.2179
     83  N         16.6960   14.2230   28.2970 N.am  144  LEU144     -0.1973
     84  CA        16.5830   13.3390   27.1710 C.3   144  LEU144      0.1639
     85  C         15.2890   13.7910   26.4860 C.2   144  LEU144      0.2290
     86  O         14.3150   14.0870   27.1890 O.2   144  LEU144     -0.2864
     87  CB        16.4810   11.8950   27.6780 C.3   144  LEU144      0.0557
     88  CG        16.5100   10.9210   26.4510 C.2   144  LEU144     -0.0239
     89  CD1       17.3870   10.6460   25.8500 C.2   144  LEU144     -0.0048
     90  CD2       16.3060    9.4060   27.8240 C.3   144  LEU144      0.0000
@<TRIPOS>BOND
     1    39    38    1
     2    39    40    2
     3    38    41    1
     4    38    37    1
     5    36    35    2
     6    35    37   am
     7    35    34    1
     8    34    33    1
     9    33    27   am
    10    58    57    1
    11    26    27    1
    12    26    29    1
    13    26    25    1
    14    27    28    2
    15    31    29    1
    16    42    43    1
    17    45    44    2
    18    29    30    1
    19    55    56    1
    20    55    54    1
    21    57    56    2
    22    57    59    1
    23    44    43    1
    24    44    49   am
    25    48    46    1
    26    54    53    1
    27    43    46    1
    28    30    32    1
    29    53    50    1
    30    46    47    1
    31    50    49    1
    32    50    51    1
    33    89    88    2
    34    88    87    1
    35    85    84    1
    36    85    86    2
    37    60    51   am
    38    60    61    1
    39    51    52    2
    40    63    62    2
    41    84    87    1
    42    84    83    1
    43    80    79    2
    44    62    61    1
    45    82    81    1
    46    61    64    1
    47    83    79   am
    48    79    78    1
    49    81    78    1
    50     1     2    1
    51    78    77    1
    52    77    67   am
    53     4     3    2
    54     7     5    1
    55     2     3    1
    56     2     5    1
    57    67    66    1
    58    67    68    2
    59     3     8   am
    60     5     6    1
    61    66    65    1
    62    66    69    1
    63    71    73   ar
    64    71    70   ar
    65    69    70    1
    66     8     9    1
    67    73    75   ar
    68     9    10    1
    69    70    72   ar
    70    75    76    1
    71    75    74   ar
    72    72    74   ar
    73    10    12   am
    74    10    11    2
    75    12    13    1
    76    15    14    2
    77    13    14    1
    78    13    16    1
    79    24    23    1
    80    19    20    2
    81    19    18    1
    82    18    21    1
    83    18    17    1
    84    23    22    1
    85    21    22    1
