@<TRIPOS>MOLECULE
tmp/2ervB02.pdb
 90 86 0 0 0
SMALL
GASTEIGER

@<TRIPOS>ATOM
      1  N         37.7210   51.2970   29.5740 N.3     7  VAL7       -0.1231
      2  CA        37.6540   51.4420   31.0210 C.3     7  VAL7        0.1692
      3  C         36.2170   51.2190   31.4510 C.2     7  VAL7        0.2593
      4  O         35.2960   51.7240   30.8050 O.2     7  VAL7       -0.2718
      5  CB        38.1050   52.8190   31.4860 C.3     7  VAL7        0.0266
      6  CG1       38.0260   52.9180   33.0440 C.3     7  VAL7        0.0020
      7  CG2       39.5120   53.0750   30.9850 C.3     7  VAL7        0.0020
      8  N         36.0240   50.4320   32.5070 N.am    8  GLY8       -0.1942
      9  CA        34.7080   50.0210   32.8710 C.3     8  GLY8        0.2014
     10  C         34.5690   49.7560   34.3630 C.2     8  GLY8        0.2638
     11  O         35.5000   49.9710   35.1540 O.2     8  GLY8       -0.2714
     12  N         33.3860   49.3020   34.7240 N.am    9  ALA9       -0.1977
     13  CA        33.1080   48.8330   36.1020 C.3     9  ALA9        0.1597
     14  C         32.2550   47.5840   36.0990 C.2     9  ALA9        0.2287
     15  O         31.4840   47.3690   35.1600 O.2     9  ALA9       -0.2864
     16  CB        32.3800   49.9820   36.9440 C.3     9  ALA9        0.0319
     17  N         36.5940   48.4320   39.3770 N.3    15  MET15      -0.1245
     18  CA        37.0540   48.9000   38.0790 C.3    15  MET15       0.1570
     19  C         37.5580   47.7650   37.1920 C.2    15  MET15       0.2261
     20  O         38.0670   46.7860   37.6970 O.2    15  MET15      -0.2867
     21  CB        38.1860   49.9360   38.2160 C.3    15  MET15       0.0387
     22  CG        37.7850   51.2280   38.9290 C.3    15  MET15       0.0595
     23  SD        36.5240   52.1230   38.0730 S.3    15  MET15      -0.1393
     24  CE        37.3680   52.5560   36.5280 C.3    15  MET15       0.0692
     25  N         27.3720   42.6290   24.3350 N.3   104  ILE104     -0.1231
     26  CA        26.6880   43.5410   23.4170 C.3   104  ILE104      0.1692
     27  C         27.3340   44.9170   23.4340 C.2   104  ILE104      0.2593
     28  O         27.9620   45.3120   24.4170 O.2   104  ILE104     -0.2718
     29  CB        25.1960   43.6880   23.7830 C.3   104  ILE104      0.0266
     30  CG1       25.0470   44.1200   25.2410 C.3   104  ILE104      0.0019
     31  CG2       24.4680   42.4110   23.5380 C.3   104  ILE104      0.0020
     32  CD1       23.7790   44.8430   25.5660 C.3   104  ILE104      0.0001
     33  N         27.1100   45.7120   22.4020 N.am  105  GLY105     -0.1942
     34  CA        27.7730   46.9940   22.4140 C.3   105  GLY105      0.2014
     35  C         27.1580   47.8880   21.3710 C.2   105  GLY105      0.2638
     36  O         26.3790   47.4330   20.5560 O.2   105  GLY105     -0.2714
     37  N         27.4800   49.1700   21.4460 N.am  106  ALA106     -0.1977
     38  CA        26.9910   50.1490   20.4590 C.3   106  ALA106      0.1597
     39  C         28.0090   51.2640   20.3450 C.2   106  ALA106      0.2287
     40  O         28.7080   51.6050   21.3350 O.2   106  ALA106     -0.2864
     41  CB        25.6120   50.6840   20.9110 C.3   106  ALA106      0.0319
     42  N         30.1340   51.9700   23.7290 N.3   118  VAL118     -0.1231
     43  CA        29.9040   51.3980   25.0440 C.3   118  VAL118      0.1692
     44  C         29.7000   49.8860   24.8490 C.2   118  VAL118      0.2592
     45  O         29.3080   49.4180   23.7670 O.2   118  VAL118     -0.2718
     46  CB        28.7020   52.0530   25.7990 C.3   118  VAL118      0.0266
     47  CG1       29.0580   53.4720   26.1970 C.3   118  VAL118      0.0020
     48  CG2       27.4140   51.9990   24.9400 C.3   118  VAL118      0.0020
     49  N         30.0660   49.1330   25.8690 N.am  119  ARG119     -0.1966
     50  CA        29.9780   47.6790   25.8000 C.3   119  ARG119      0.1729
     51  C         29.5460   47.1410   27.1540 C.2   119  ARG119      0.2616
     52  O         29.9940   47.6630   28.1900 O.2   119  ARG119     -0.2715
     53  CB        31.3550   47.1360   25.4580 C.3   119  ARG119      0.0348
     54  CG        31.3860   45.6360   25.3260 C.3   119  ARG119      0.0492
     55  CD        32.6860   45.1190   24.7590 C.3   119  ARG119      0.2205
     56  NE        32.9710   45.6500   23.4220 N.pl3 119  ARG119     -0.0865
     57  CZ        34.1300   46.2080   23.0320 C.cat 119  ARG119      0.5346
     58  NH1       35.1300   46.3630   23.8980 N.pl3 119  ARG119      0.1354
     59  NH2       34.2630   46.6200   21.7530 N.pl3 119  ARG119      0.1354
     60  N         28.7030   46.0990   27.1460 N.am  120  ALA120     -0.1977
     61  CA        28.3370   45.3330   28.3390 C.3   120  ALA120      0.1597
     62  C         28.7810   43.8800   28.1080 C.2   120  ALA120      0.2287
     63  O         28.3740   43.2830   27.0900 O.2   120  ALA120     -0.2864
     64  CB        26.8190   45.4170   28.5980 C.3   120  ALA120      0.0319
     65  N         30.9200   46.7990   32.4790 N.3   138  TYR138     -0.1227
     66  CA        30.1980   47.8330   31.6840 C.3   138  TYR138      0.1736
     67  C         31.1660   48.9670   31.3600 C.2   138  TYR138      0.2596
     68  O         31.6450   49.6230   32.2780 O.2   138  TYR138     -0.2718
     69  CB        29.0100   48.3790   32.5120 C.3   138  TYR138      0.0548
     70  CG        28.0680   47.2860   33.0230 C.ar  138  TYR138     -0.0200
     71  CD1       27.0630   46.7790   32.1930 C.ar  138  TYR138     -0.0009
     72  CD2       28.2060   46.7390   34.3090 C.ar  138  TYR138     -0.0009
     73  CE1       26.1860   45.7780   32.6520 C.ar  138  TYR138      0.0417
     74  CE2       27.3630   45.7520   34.7560 C.ar  138  TYR138      0.0417
     75  CZ        26.3560   45.2670   33.9130 C.ar  138  TYR138      0.1957
     76  OH        25.5330   44.2640   34.3410 O.3   138  TYR138     -0.2866
     77  N         31.4640   49.2000   30.0810 N.am  139  SER139     -0.1938
     78  CA        32.6590   49.9350   29.7190 C.3   139  SER139      0.2055
     79  C         32.4580   50.9110   28.5560 C.2   139  SER139      0.2642
     80  O         31.4880   50.8090   27.8100 O.2   139  SER139     -0.2714
     81  CB        33.8450   48.9700   29.4200 C.3   139  SER139      0.2130
     82  OG        33.6480   48.2570   28.2140 O.3   139  SER139     -0.2179
     83  N         33.3520   51.8950   28.4870 N.am  140  LEU140     -0.1977
     84  CA        33.4790   52.8080   27.3860 C.3   140  LEU140      0.1596
     85  C         34.7750   52.4070   26.6790 C.2   140  LEU140      0.2287
     86  O         35.7870   52.2350   27.3420 O.2   140  LEU140     -0.2864
     87  CB        33.6030   54.2430   27.9100 C.3   140  LEU140      0.0297
     88  CG        33.9430   55.3990   26.9490 C.3   140  LEU140      0.0022
     89  CD1       32.8380   55.7000   25.9880 C.3   140  LEU140      0.0001
     90  CD2       34.2470   56.6980   27.7500 C.3   140  LEU140      0.0001
@<TRIPOS>BOND
     1    39    38    1
     2    39    40    2
     3    38    41    1
     4    38    37    1
     5    36    35    2
     6    35    37   am
     7    35    34    1
     8    59    57    1
     9    33    34    1
    10    33    27   am
    11    57    56    2
    12    57    58    1
    13    26    27    1
    14    26    29    1
    15    26    25    1
    16    56    55    1
    17    27    28    2
    18    31    29    1
    19    42    43    1
    20    45    44    2
    21    29    30    1
    22    55    54    1
    23    44    43    1
    24    44    49   am
    25    48    46    1
    26    43    46    1
    27    30    32    1
    28    54    53    1
    29    53    50    1
    30    46    47    1
    31    50    49    1
    32    50    51    1
    33    89    88    1
    34    85    86    2
    35    85    84    1
    36    88    90    1
    37    88    87    1
    38    63    62    2
    39    60    51   am
    40    60    61    1
    41    51    52    2
    42    84    87    1
    43    84    83    1
    44    80    79    2
    45    62    61    1
    46    82    81    1
    47    61    64    1
    48    83    79   am
    49    79    78    1
    50    81    78    1
    51     1     2    1
    52    78    77    1
    53    77    67   am
    54     4     3    2
    55     7     5    1
    56     2     3    1
    57     2     5    1
    58    67    66    1
    59    67    68    2
    60     3     8   am
    61     5     6    1
    62    66    65    1
    63    66    69    1
    64    71    73   ar
    65    71    70   ar
    66     8     9    1
    67    69    70    1
    68    73    75   ar
    69     9    10    1
    70    70    72   ar
    71    75    76    1
    72    75    74   ar
    73    72    74   ar
    74    10    12   am
    75    10    11    2
    76    12    13    1
    77    15    14    2
    78    14    13    1
    79    13    16    1
    80    24    23    1
    81    19    20    2
    82    19    18    1
    83    23    22    1
    84    18    21    1
    85    18    17    1
    86    21    22    1
