@<TRIPOS>MOLECULE
tmp/2ervB05.pdb
 88 85 0 0 0
SMALL
GASTEIGER

@<TRIPOS>ATOM
      1  N         27.2480   42.2950   18.8690 N.3    77  ALA77      -0.1231
      2  CA        26.9740   41.2040   19.8230 C.3    77  ALA77       0.1694
      3  C         27.8500   40.0290   19.4840 C.2    77  ALA77       0.2593
      4  O         28.1620   39.7770   18.2890 O.2    77  ALA77      -0.2718
      5  CB        25.4860   40.8120   19.7940 C.3    77  ALA77       0.0304
      6  N         28.3170   39.3470   20.5230 N.am   78  GLY78      -0.1942
      7  CA        29.1950   38.2400   20.3020 C.3    78  GLY78       0.2014
      8  C         29.1630   37.3010   21.4670 C.2    78  GLY78       0.2638
      9  O         28.7710   37.6940   22.5710 O.2    78  GLY78      -0.2714
     10  N         29.5650   36.0600   21.2000 N.am   79  ILE79      -0.1977
     11  CA        29.8920   35.1260   22.2480 C.3    79  ILE79       0.1596
     12  C         31.2870   34.6320   22.0310 C.2    79  ILE79       0.2287
     13  O         31.6500   34.2190   20.9090 O.2    79  ILE79      -0.2864
     14  CB        28.9040   33.9190   22.2600 C.3    79  ILE79       0.0276
     15  CG1       28.8580   33.2410   20.8730 C.3    79  ILE79       0.0022
     16  CG2       27.4930   34.3930   22.6470 C.3    79  ILE79       0.0022
     17  CD1       27.6310   32.2500   20.6980 C.3    79  ILE79       0.0001
     18  N         29.8940   36.7470   26.9880 N.3   102  ASP102     -0.1225
     19  CA        28.7230   37.1800   26.1880 C.3   102  ASP102      0.1805
     20  C         28.7750   38.6710   26.1660 C.2   102  ASP102      0.2598
     21  O         28.9170   39.2740   27.2550 O.2   102  ASP102     -0.2718
     22  CB        27.4290   36.8070   26.8950 C.3   102  ASP102      0.1424
     23  CG        27.1510   35.3080   26.8790 C.2   102  ASP102      0.3668
     24  OD1       27.3430   34.6470   25.8400 O.co2 102  ASP102     -0.2456
     25  OD2       26.7400   34.6930   27.8870 O.co2 102  ASP102     -0.2456
     26  N         28.6250   39.3000   24.9860 N.am  103  ARG103     -0.1966
     27  CA        28.7170   40.7680   24.9470 C.3   103  ARG103      0.1729
     28  C         27.7340   41.4050   23.9950 C.2   103  ARG103      0.2616
     29  O         27.3250   40.8020   23.0020 O.2   103  ARG103     -0.2715
     30  CB        30.1250   41.2220   24.5290 C.3   103  ARG103      0.0348
     31  CG        30.6500   40.3720   23.3720 C.3   103  ARG103      0.0492
     32  CD        32.1840   40.4460   23.1570 C.3   103  ARG103      0.2205
     33  NE        32.5120   41.7590   22.6630 N.pl3 103  ARG103     -0.0865
     34  CZ        33.7440   42.1660   22.3640 C.cat 103  ARG103      0.5346
     35  NH1       34.7700   41.3470   22.5030 N.pl3 103  ARG103      0.1354
     36  NH2       33.9360   43.3900   21.9090 N.pl3 103  ARG103      0.1354
     37  N         27.3720   42.6290   24.3350 N.am  104  ILE104     -0.1977
     38  CA        26.6880   43.5410   23.4170 C.3   104  ILE104      0.1596
     39  C         27.3340   44.9170   23.4340 C.2   104  ILE104      0.2287
     40  O         27.9620   45.3120   24.4170 O.2   104  ILE104     -0.2864
     41  CB        25.1960   43.6880   23.7830 C.3   104  ILE104      0.0276
     42  CG1       25.0470   44.1200   25.2410 C.3   104  ILE104      0.0022
     43  CG2       24.4680   42.4110   23.5380 C.3   104  ILE104      0.0022
     44  CD1       23.7790   44.8430   25.5660 C.3   104  ILE104      0.0001
     45  N         28.7030   46.0990   27.1460 N.3   120  ALA120     -0.1231
     46  CA        28.3370   45.3330   28.3390 C.3   120  ALA120      0.1694
     47  C         28.7810   43.8800   28.1080 C.2   120  ALA120      0.2592
     48  O         28.3740   43.2830   27.0900 O.2   120  ALA120     -0.2718
     49  CB        26.8190   45.4170   28.5980 C.3   120  ALA120      0.0304
     50  N         29.6450   43.3450   28.9950 N.am  121  ILE121     -0.1966
     51  CA        30.1600   41.9810   28.8010 C.3   121  ILE121      0.1727
     52  C         29.8880   41.2050   30.0570 C.2   121  ILE121      0.2616
     53  O         30.0550   41.7330   31.1840 O.2   121  ILE121     -0.2715
     54  CB        31.7130   41.9590   28.5060 C.3   121  ILE121      0.0290
     55  CG1       32.1000   42.8910   27.3440 C.3   121  ILE121      0.0022
     56  CG2       32.1700   40.5370   28.2280 C.3   121  ILE121      0.0023
     57  CD1       33.6100   43.0420   27.0510 C.3   121  ILE121      0.0001
     58  N         29.4350   39.9610   29.8860 N.am  122  HIS122     -0.1973
     59  CA        29.1590   39.0890   31.0140 C.3   122  HIS122      0.1656
     60  C         29.9730   37.7880   30.8630 C.2   122  HIS122      0.2291
     61  O         30.0190   37.1910   29.7530 O.2   122  HIS122     -0.2864
     62  CB        27.6700   38.6940   31.0400 C.3   122  HIS122      0.0771
     63  CG        27.3590   37.5690   31.9980 C.ar  122  HIS122      0.0820
     64  ND1       27.4160   37.7150   33.3730 N.ar  122  HIS122     -0.2267
     65  CD2       27.0160   36.2690   31.7730 C.ar  122  HIS122      0.1154
     66  CE1       27.0910   36.5670   33.9510 C.ar  122  HIS122      0.1986
     67  NE2       26.8540   35.6760   33.0030 N.ar  122  HIS122     -0.2212
     68  N         30.5080   40.8760   35.4890 N.3   136  GLU136     -0.1245
     69  CA        30.2330   41.7040   34.3150 C.3   136  GLU136      0.1567
     70  C         31.1640   42.8850   34.2340 C.2   136  GLU136      0.2260
     71  O         31.6990   43.3220   35.2610 O.2   136  GLU136     -0.2867
     72  CB        28.8050   42.2510   34.3830 C.3   136  GLU136      0.0388
     73  CG        27.7050   41.1750   34.3810 C.3   136  GLU136      0.1160
     74  CD        27.5800   40.3700   35.6840 C.2   136  GLU136      0.3649
     75  OE1       27.4930   40.9860   36.7600 O.co2 136  GLU136     -0.2457
     76  OE2       27.5100   39.1090   35.6300 O.co2 136  GLU136     -0.2457
     77  N         30.9200   46.7990   32.4790 N.3   138  TYR138     -0.1241
     78  CA        30.1980   47.8330   31.6840 C.3   138  TYR138      0.1605
     79  C         31.1660   48.9670   31.3600 C.2   138  TYR138      0.2264
     80  O         31.6450   49.6230   32.2780 O.2   138  TYR138     -0.2867
     81  CB        29.0100   48.3790   32.5120 C.3   138  TYR138      0.0534
     82  CG        28.0680   47.2860   33.0230 C.ar  138  TYR138     -0.0201
     83  CD1       27.0630   46.7790   32.1930 C.ar  138  TYR138     -0.0009
     84  CD2       28.2060   46.7390   34.3090 C.ar  138  TYR138     -0.0009
     85  CE1       26.1860   45.7780   32.6520 C.ar  138  TYR138      0.0417
     86  CE2       27.3630   45.7520   34.7560 C.ar  138  TYR138      0.0417
     87  CZ        26.3560   45.2670   33.9130 C.ar  138  TYR138      0.1957
     88  OH        25.5330   44.2640   34.3410 O.3   138  TYR138     -0.2866
@<TRIPOS>BOND
     1     4     3    2
     2     1     2    1
     3     3     2    1
     4     3     6   am
     5     5     2    1
     6     7     6    1
     7     7     8    1
     8    17    15    1
     9    15    14    1
    10    13    12    2
    11    10     8   am
    12    10    11    1
    13     8     9    2
    14    36    34    1
    15    12    11    1
    16    11    14    1
    17    14    16    1
    18    34    35    1
    19    34    33    2
    20    33    32    1
    21    29    28    2
    22    32    31    1
    23    31    30    1
    24    38    39    1
    25    38    41    1
    26    38    37    1
    27    39    40    2
    28    43    41    1
    29    41    42    1
    30    28    37   am
    31    28    27    1
    32    30    27    1
    33    27    26    1
    34    26    20   am
    35    42    44    1
    36    24    23   ar
    37    20    19    1
    38    20    21    2
    39    19    22    1
    40    19    18    1
    41    23    22    1
    42    23    25   ar
    43    57    55    1
    44    48    47    2
    45    45    46    1
    46    55    54    1
    47    47    46    1
    48    47    50   am
    49    56    54    1
    50    46    49    1
    51    54    51    1
    52    51    50    1
    53    51    52    1
    54    61    60    2
    55    58    52   am
    56    58    59    1
    57    52    53    2
    58    60    59    1
    59    59    62    1
    60    62    63    1
    61    79    78    1
    62    79    80    2
    63    78    77    1
    64    78    81    1
    65    65    63   ar
    66    65    67   ar
    67    63    64   ar
    68    83    85   ar
    69    83    82   ar
    70    81    82    1
    71    85    87   ar
    72    67    66   ar
    73    82    84   ar
    74    64    66   ar
    75    87    88    1
    76    87    86   ar
    77    70    69    1
    78    70    71    2
    79    84    86   ar
    80    69    72    1
    81    69    68    1
    82    73    72    1
    83    73    74    1
    84    76    74   ar
    85    74    75   ar
