@<TRIPOS>MOLECULE
tmp/2ervA00.pdb
 88 85 0 0 0
SMALL
GASTEIGER

@<TRIPOS>ATOM
      1  N         22.8880   23.9600   18.9350 N.3    81  ALA81      -0.1231
      2  CA        23.2080   25.0560   19.8940 C.3    81  ALA81       0.1694
      3  C         22.3070   26.2150   19.6150 C.2    81  ALA81       0.2593
      4  O         22.0690   26.5530   18.4570 O.2    81  ALA81      -0.2718
      5  CB        24.6860   25.5400   19.7060 C.3    81  ALA81       0.0304
      6  N         21.8190   26.8870   20.6560 N.am   82  GLY82      -0.1942
      7  CA        20.9970   28.0050   20.3430 C.3    82  GLY82       0.2014
      8  C         21.0080   28.9180   21.5300 C.2    82  GLY82       0.2638
      9  O         21.4870   28.5470   22.5970 O.2    82  GLY82      -0.2714
     10  N         20.5170   30.1200   21.2910 N.am   83  ILE83      -0.1977
     11  CA        20.3280   31.1140   22.3150 C.3    83  ILE83       0.1596
     12  C         18.9530   31.6550   22.1660 C.2    83  ILE83       0.2287
     13  O         18.5720   32.1200   21.0740 O.2    83  ILE83      -0.2864
     14  CB        21.3630   32.2500   22.1450 C.3    83  ILE83       0.0276
     15  CG1       21.4280   32.7190   20.6700 C.3    83  ILE83       0.0022
     16  CG2       22.7450   31.7460   22.5290 C.3    83  ILE83       0.0022
     17  CD1       22.5740   33.9560   20.6510 C.3    83  ILE83       0.0001
     18  N         20.3700   29.4640   27.0810 N.3   106  ASP106     -0.1225
     19  CA        21.5180   28.9830   26.2800 C.3   106  ASP106      0.1805
     20  C         21.4880   27.4750   26.2620 C.2   106  ASP106      0.2598
     21  O         21.3700   26.8580   27.3310 O.2   106  ASP106     -0.2718
     22  CB        22.8410   29.3940   26.9430 C.3   106  ASP106      0.1424
     23  CG        23.0590   30.8980   26.9510 C.2   106  ASP106      0.3668
     24  OD1       22.8370   31.5810   25.9250 O.co2 106  ASP106     -0.2456
     25  OD2       23.3710   31.5110   27.9840 O.co2 106  ASP106     -0.2456
     26  N         21.5750   26.8670   25.0750 N.am  107  ARG107     -0.1966
     27  CA        21.4100   25.4260   25.0020 C.3   107  ARG107      0.1729
     28  C         22.3950   24.7800   24.0380 C.2   107  ARG107      0.2616
     29  O         22.8080   25.4030   23.0410 O.2   107  ARG107     -0.2715
     30  CB        19.9840   25.0830   24.5410 C.3   107  ARG107      0.0348
     31  CG        19.5170   25.9670   23.3970 C.3   107  ARG107      0.0492
     32  CD        18.0260   25.9380   23.1910 C.3   107  ARG107      0.2205
     33  NE        17.6170   24.6330   22.6920 N.pl3 107  ARG107     -0.0865
     34  CZ        16.3530   24.3200   22.4350 C.cat 107  ARG107      0.5346
     35  NH1       15.3890   25.1840   22.6820 N.pl3 107  ARG107      0.1354
     36  NH2       16.0690   23.1490   21.9450 N.pl3 107  ARG107      0.1354
     37  N         22.7680   23.5460   24.3520 N.am  108  ILE108     -0.1977
     38  CA        23.4560   22.6410   23.4010 C.3   108  ILE108      0.1596
     39  C         22.7930   21.2880   23.4440 C.2   108  ILE108      0.2287
     40  O         22.0550   20.9890   24.3750 O.2   108  ILE108     -0.2864
     41  CB        24.9440   22.4690   23.7260 C.3   108  ILE108      0.0276
     42  CG1       25.1280   22.0210   25.1740 C.3   108  ILE108      0.0022
     43  CG2       25.6750   23.7580   23.5090 C.3   108  ILE108      0.0022
     44  CD1       26.4620   21.3460   25.4390 C.3   108  ILE108      0.0001
     45  N         21.4050   20.0740   27.0150 N.3   124  ALA124     -0.1231
     46  CA        21.7480   20.7650   28.2690 C.3   124  ALA124      0.1694
     47  C         21.3390   22.2290   28.0510 C.2   124  ALA124      0.2592
     48  O         21.7320   22.8090   27.0360 O.2   124  ALA124     -0.2718
     49  CB        23.2490   20.6480   28.5110 C.3   124  ALA124      0.0304
     50  N         20.5210   22.7920   28.9470 N.am  125  ILE125     -0.1966
     51  CA        20.0330   24.1540   28.7860 C.3   125  ILE125      0.1727
     52  C         20.3080   24.9090   30.0610 C.2   125  ILE125      0.2616
     53  O         20.1150   24.3720   31.1510 O.2   125  ILE125     -0.2715
     54  CB        18.5090   24.2050   28.4800 C.3   125  ILE125      0.0290
     55  CG1       18.1750   23.2640   27.3040 C.3   125  ILE125      0.0022
     56  CG2       18.1060   25.6450   28.1930 C.3   125  ILE125      0.0023
     57  CD1       16.6830   23.1060   27.0360 C.3   125  ILE125      0.0001
     58  N         20.7970   26.1370   29.9120 N.am  126  HIS126     -0.1973
     59  CA        21.0290   27.0160   31.0650 C.3   126  HIS126      0.1656
     60  C         20.2610   28.3270   30.9660 C.2   126  HIS126      0.2291
     61  O         20.1600   28.9250   29.8880 O.2   126  HIS126     -0.2864
     62  CB        22.5440   27.2890   31.1800 C.3   126  HIS126      0.0771
     63  CG        22.8880   28.4820   32.0230 C.ar  126  HIS126      0.0820
     64  ND1       22.9100   28.4390   33.4040 N.ar  126  HIS126     -0.2267
     65  CD2       23.2590   29.7420   31.6780 C.ar  126  HIS126      0.1154
     66  CE1       23.2680   29.6300   33.8720 C.ar  126  HIS126      0.1986
     67  NE2       23.4630   30.4410   32.8450 N.ar  126  HIS126     -0.2212
     68  N         19.6330   25.1280   35.4280 N.3   140  GLU140     -0.1245
     69  CA        19.9730   24.3250   34.2600 C.3   140  GLU140      0.1567
     70  C         19.0250   23.1560   34.2010 C.2   140  GLU140      0.2260
     71  O         18.4860   22.7570   35.2500 O.2   140  GLU140     -0.2867
     72  CB        21.4030   23.7760   34.3770 C.3   140  GLU140      0.0388
     73  CG        22.5370   24.8270   34.3070 C.3   140  GLU140      0.1160
     74  CD        22.7610   25.5890   35.6210 C.2   140  GLU140      0.3649
     75  OE1       22.8780   24.9280   36.6810 O.co2 140  GLU140     -0.2457
     76  OE2       22.8340   26.8660   35.5880 O.co2 140  GLU140     -0.2457
     77  N         19.1930   19.2630   32.3010 N.3   142  TYR142     -0.1241
     78  CA        19.9150   18.2500   31.5010 C.3   142  TYR142      0.1605
     79  C         18.9340   17.1330   31.1680 C.2   142  TYR142      0.2264
     80  O         18.4750   16.4270   32.0750 O.2   142  TYR142     -0.2867
     81  CB        21.0920   17.6770   32.3220 C.3   142  TYR142      0.0534
     82  CG        22.0420   18.7580   32.8390 C.ar  142  TYR142     -0.0201
     83  CD1       23.0840   19.2240   32.0380 C.ar  142  TYR142     -0.0009
     84  CD2       21.9080   19.2870   34.1220 C.ar  142  TYR142     -0.0009
     85  CE1       23.9600   20.2320   32.4770 C.ar  142  TYR142      0.0417
     86  CE2       22.7950   20.2720   34.5850 C.ar  142  TYR142      0.0417
     87  CZ        23.8180   20.7300   33.7430 C.ar  142  TYR142      0.1957
     88  OH        24.6990   21.7240   34.1380 O.3   142  TYR142     -0.2866
@<TRIPOS>BOND
     1     4     3    2
     2     1     2    1
     3     3     2    1
     4     3     6   am
     5     5     2    1
     6     7     6    1
     7     7     8    1
     8    17    15    1
     9    15    14    1
    10    13    12    2
    11    10     8   am
    12    10    11    1
    13     8     9    2
    14    36    34    1
    15    14    11    1
    16    14    16    1
    17    12    11    1
    18    34    35    1
    19    34    33    2
    20    33    32    1
    21    29    28    2
    22    32    31    1
    23    31    30    1
    24    38    39    1
    25    38    41    1
    26    38    37    1
    27    39    40    2
    28    43    41    1
    29    41    42    1
    30    28    37   am
    31    28    27    1
    32    30    27    1
    33    27    26    1
    34    26    20   am
    35    42    44    1
    36    24    23   ar
    37    20    19    1
    38    20    21    2
    39    19    22    1
    40    19    18    1
    41    22    23    1
    42    23    25   ar
    43    45    46    1
    44    48    47    2
    45    57    55    1
    46    55    54    1
    47    47    46    1
    48    47    50   am
    49    56    54    1
    50    46    49    1
    51    54    51    1
    52    51    50    1
    53    51    52    1
    54    61    60    2
    55    58    52   am
    56    58    59    1
    57    52    53    2
    58    60    59    1
    59    59    62    1
    60    79    78    1
    61    79    80    2
    62    62    63    1
    63    78    77    1
    64    78    81    1
    65    65    63   ar
    66    65    67   ar
    67    63    64   ar
    68    83    85   ar
    69    83    82   ar
    70    81    82    1
    71    85    87   ar
    72    82    84   ar
    73    67    66   ar
    74    64    66   ar
    75    87    88    1
    76    87    86   ar
    77    84    86   ar
    78    70    69    1
    79    70    71    2
    80    69    72    1
    81    69    68    1
    82    73    72    1
    83    73    74    1
    84    76    74   ar
    85    74    75   ar
