@<TRIPOS>MOLECULE
tmp/2eryB00.pdb
 151 147 0 0 0
SMALL
GASTEIGER

@<TRIPOS>ATOM
      1  N        -22.5590  -15.7110  -16.3420 N.3    11  GLY11      -0.1210
      2  CA       -21.4300  -16.6280  -16.2710 C.3    11  GLY11       0.1956
      3  C        -20.1790  -16.0150  -16.8640 C.2    11  GLY11       0.2612
      4  O        -20.2350  -15.3090  -17.8700 O.2    11  GLY11      -0.2717
      5  N        -19.0440  -16.2750  -16.2230 N.am   12  GLY12      -0.1942
      6  CA       -17.7520  -15.8920  -16.7660 C.3    12  GLY12       0.2014
      7  C        -17.3970  -14.4080  -16.7430 C.2    12  GLY12       0.2639
      8  O        -16.4050  -14.0090  -17.3590 O.2    12  GLY12      -0.2714
      9  N        -18.1790  -13.5830  -16.0500 N.am   13  VAL13      -0.1963
     10  CA       -17.9130  -12.1340  -16.0240 C.3    13  VAL13       0.1727
     11  C        -16.7770  -11.7490  -15.0740 C.2    13  VAL13       0.2617
     12  O        -16.2220  -10.6550  -15.1750 O.2    13  VAL13      -0.2715
     13  CB       -19.1590  -11.2850  -15.6490 C.3    13  VAL13       0.0290
     14  CG1      -20.2820  -11.5060  -16.6560 C.3    13  VAL13       0.0023
     15  CG2      -19.6300  -11.5600  -14.2130 C.3    13  VAL13       0.0023
     16  N        -16.4530  -12.6410  -14.1430 N.am   14  GLY14      -0.1940
     17  CA       -15.4100  -12.3780  -13.1630 C.3    14  GLY14       0.2014
     18  C        -15.8540  -12.2640  -11.7140 C.2    14  GLY14       0.2639
     19  O        -15.1480  -11.6740  -10.9060 O.2    14  GLY14      -0.2714
     20  N        -17.0110  -12.8270  -11.3800 N.am   15  LYS15      -0.1963
     21  CA       -17.4900  -12.8240   -9.9960 C.3    15  LYS15       0.1728
     22  C        -16.4590  -13.4740   -9.0810 C.2    15  LYS15       0.2617
     23  O        -15.9790  -12.8710   -8.1210 O.2    15  LYS15      -0.2715
     24  CB       -18.8230  -13.5570   -9.8780 C.3    15  LYS15       0.0311
     25  CG       -19.9340  -12.9710  -10.7130 C.3    15  LYS15       0.0038
     26  CD       -21.2460  -13.6770  -10.4930 C.3    15  LYS15       0.0206
     27  CE       -21.2470  -15.0930  -11.0450 C.3    15  LYS15       0.1093
     28  NZ       -21.0340  -15.1260  -12.5310 N.3    15  LYS15      -0.1314
     29  N        -16.0900  -14.7060   -9.3910 N.am   16  SER16      -0.1936
     30  CA       -15.1380  -15.3970   -8.5540 C.3    16  SER16       0.2055
     31  C        -13.7540  -14.7470   -8.5770 C.2    16  SER16       0.2642
     32  O        -13.1140  -14.6120   -7.5260 O.2    16  SER16      -0.2714
     33  CB       -15.0350  -16.8660   -8.9680 C.3    16  SER16       0.2130
     34  OG       -16.2910  -17.5290   -8.8570 O.3    16  SER16      -0.2179
     35  N        -13.2800  -14.3560   -9.7590 N.am   17  ALA17      -0.1977
     36  CA       -11.9640  -13.7010   -9.8610 C.3    17  ALA17       0.1597
     37  C        -11.9130  -12.4010   -9.0570 C.2    17  ALA17       0.2287
     38  O        -10.9190  -12.1270   -8.3860 O.2    17  ALA17      -0.2864
     39  CB       -11.5820  -13.4440  -11.3170 C.3    17  ALA17       0.0319
     40  N         -5.0080  -13.9700   -8.7390 N.3    27  PHE27      -0.1227
     41  CA        -5.9290  -14.0470   -9.8570 C.3    27  PHE27       0.1736
     42  C         -6.1540  -15.5100  -10.2410 C.2    27  PHE27       0.2595
     43  O         -5.1990  -16.2170  -10.5750 O.2    27  PHE27      -0.2718
     44  CB        -5.3530  -13.2440  -11.0280 C.3    27  PHE27       0.0547
     45  CG        -6.1790  -13.3050  -12.2830 C.ar   27  PHE27      -0.0202
     46  CD1       -7.5260  -12.9810  -12.2660 C.ar   27  PHE27      -0.0042
     47  CD2       -5.5940  -13.6640  -13.4940 C.ar   27  PHE27      -0.0042
     48  CE1       -8.2850  -13.0340  -13.4260 C.ar   27  PHE27      -0.0003
     49  CE2       -6.3480  -13.7180  -14.6560 C.ar   27  PHE27      -0.0003
     50  CZ        -7.6940  -13.3950  -14.6210 C.ar   27  PHE27      -0.0000
     51  N         -7.4060  -15.9690  -10.1600 N.am   28  VAL28      -0.1966
     52  CA        -7.7510  -17.3300  -10.6080 C.3    28  VAL28       0.1727
     53  C         -8.1690  -17.3720  -12.0790 C.2    28  VAL28       0.2617
     54  O         -8.9790  -16.5630  -12.5390 O.2    28  VAL28      -0.2715
     55  CB        -8.8520  -18.0050   -9.7500 C.3    28  VAL28       0.0290
     56  CG1       -8.3380  -18.2700   -8.3540 C.3    28  VAL28       0.0023
     57  CG2      -10.1420  -17.1870   -9.7200 C.3    28  VAL28       0.0023
     58  N         -7.6160  -18.3440  -12.8010 N.am   29  THR29      -0.1937
     59  CA        -7.8680  -18.4910  -14.2300 C.3    29  THR29       0.2028
     60  C         -8.9330  -19.5460  -14.5410 C.2    29  THR29       0.2642
     61  O         -9.5530  -19.4990  -15.6060 O.2    29  THR29      -0.2714
     62  CB        -6.5760  -18.8830  -14.9710 C.3    29  THR29       0.1808
     63  OG1       -6.1400  -20.1740  -14.5280 O.3    29  THR29      -0.2208
     64  CG2       -5.4780  -17.8640  -14.7130 C.3    29  THR29       0.0379
     65  N         -9.1320  -20.4940  -13.6250 N.am   30  ASP30      -0.1957
     66  CA       -10.0230  -21.6360  -13.8730 C.3    30  ASP30       0.1840
     67  C        -10.7670  -22.0930  -12.6140 C.2    30  ASP30       0.2622
     68  O        -10.7590  -23.2720  -12.2700 O.2    30  ASP30      -0.2715
     69  CB        -9.2250  -22.8010  -14.4600 C.3    30  ASP30       0.1450
     70  CG       -10.0730  -23.8680  -15.1120 C.2    30  ASP30       0.3671
     71  OD1      -11.2840  -23.7550  -15.2220 O.co2  30  ASP30      -0.2456
     72  OD2       -9.5040  -24.8140  -15.6620 O.co2  30  ASP30      -0.2456
     73  N        -11.4220  -21.1590  -11.9390 N.am   31  TYR31      -0.1974
     74  CA       -12.2060  -21.4740  -10.7430 C.3    31  TYR31       0.1639
     75  C        -13.5700  -22.0200  -11.1570 C.2    31  TYR31       0.2290
     76  O        -14.2940  -21.3690  -11.9180 O.2    31  TYR31      -0.2864
     77  CB       -12.3640  -20.2270   -9.8780 C.3    31  TYR31       0.0560
     78  CG       -13.0790  -20.4560   -8.5620 C.ar   31  TYR31      -0.0198
     79  CD1      -14.4060  -20.0890   -8.4100 C.ar   31  TYR31      -0.0009
     80  CD2      -12.4340  -21.0590   -7.4720 C.ar   31  TYR31      -0.0009
     81  CE1      -15.0840  -20.2820   -7.2210 C.ar   31  TYR31       0.0417
     82  CE2      -13.1110  -21.2590   -6.2610 C.ar   31  TYR31       0.0417
     83  CZ       -14.4420  -20.8520   -6.1480 C.ar   31  TYR31       0.1957
     84  OH       -15.1620  -21.0170   -4.9790 O.3    31  TYR31      -0.2866
     85  N        -16.9280  -22.9380  -12.4340 N.3    33  PRO33      -0.2116
     86  CA       -18.0160  -21.9870  -12.6750 C.3    33  PRO33       0.1372
     87  C        -19.2930  -22.2660  -11.8650 C.2    33  PRO33       0.2244
     88  O        -20.1350  -21.3720  -11.7350 O.2    33  PRO33      -0.2868
     89  CB       -18.2880  -22.1460  -14.1720 C.3    33  PRO33       0.0268
     90  CG       -17.9030  -23.5610  -14.4690 C.3    33  PRO33       0.0207
     91  CD       -16.6830  -23.7900  -13.6160 C.3    33  PRO33       0.0892
     92  N        -21.7210  -15.8010   -5.9900 N.3    57  THR57      -0.1218
     93  CA       -22.8250  -16.6340   -6.4910 C.3    57  THR57       0.1862
     94  C        -22.4750  -17.3670   -7.7860 C.2    57  THR57       0.2287
     95  O        -21.5910  -16.9570   -8.5240 O.2    57  THR57      -0.2866
     96  CB       -24.1440  -15.8340   -6.6510 C.3    57  THR57       0.1770
     97  OG1      -24.0230  -14.8800   -7.7130 O.3    57  THR57      -0.2211
     98  CG2      -24.4880  -15.1060   -5.3480 C.3    57  THR57       0.0375
     99  N        -16.3060   -5.2510  -15.4160 N.3   115  ASN115     -0.1225
    100  CA       -15.0510   -5.9560  -15.1940 C.3   115  ASN115      0.1785
    101  C        -14.3310   -6.2730  -16.5190 C.2   115  ASN115      0.2597
    102  O        -14.9090   -6.1350  -17.6050 O.2   115  ASN115     -0.2718
    103  CB       -15.3180   -7.2450  -14.4130 C.3   115  ASN115      0.1169
    104  CG       -14.0420   -7.9090  -13.9310 C.2   115  ASN115      0.2627
    105  OD1      -13.1020   -7.2450  -13.4900 O.2   115  ASN115     -0.2716
    106  ND2      -13.9880   -9.2190  -14.0490 N.am  115  ASN115     -0.0877
    107  N        -13.0660   -6.6710  -16.4110 N.am  116  LYS116     -0.1980
    108  CA       -12.2050   -7.0260  -17.5570 C.3   116  LYS116      0.1596
    109  C        -11.7660   -5.8000  -18.3690 C.2   116  LYS116      0.2287
    110  O        -11.4640   -5.9140  -19.5540 O.2   116  LYS116     -0.2864
    111  CB       -12.8470   -8.0860  -18.4790 C.3   116  LYS116      0.0298
    112  CG       -13.3810   -9.3170  -17.7570 C.3   116  LYS116      0.0038
    113  CD       -13.3510  -10.5520  -18.6370 C.3   116  LYS116      0.0206
    114  CE       -14.0000  -11.7380  -17.9600 C.3   116  LYS116      0.1093
    115  NZ       -14.1110  -12.9340  -18.8560 N.3   116  LYS116     -0.1314
    116  N         -9.0340   -4.3770  -18.4500 N.3   118  ASP118     -0.1225
    117  CA        -7.6870   -4.5790  -19.0010 C.3   118  ASP118      0.1805
    118  C         -7.6840   -5.0580  -20.4620 C.2   118  ASP118      0.2597
    119  O         -6.6970   -4.8710  -21.1670 O.2   118  ASP118     -0.2718
    120  CB        -6.8900   -5.5670  -18.1480 C.3   118  ASP118      0.1424
    121  CG        -7.5630   -6.9120  -18.0380 C.2   118  ASP118      0.3668
    122  OD1       -8.6100   -6.9900  -17.3660 O.co2 118  ASP118     -0.2456
    123  OD2       -7.0500   -7.8860  -18.6240 O.co2 118  ASP118     -0.2456
    124  N         -8.7780   -5.6770  -20.9050 N.am  119  LEU119     -0.1979
    125  CA        -8.8930   -6.1780  -22.2750 C.3   119  LEU119      0.1596
    126  C         -9.4410   -5.0960  -23.2240 C.2   119  LEU119      0.2287
    127  O        -10.4870   -5.2730  -23.8510 O.2   119  LEU119     -0.2864
    128  CB        -9.7970   -7.4180  -22.3010 C.3   119  LEU119      0.0297
    129  CG        -9.3490   -8.6090  -21.4500 C.3   119  LEU119      0.0022
    130  CD1      -10.3850   -9.7280  -21.5170 C.3   119  LEU119      0.0001
    131  CD2       -7.9740   -9.1130  -21.8670 C.3   119  LEU119      0.0001
    132  N        -10.6880   -4.5550  -13.0350 N.3   145  SER145     -0.1202
    133  CA       -10.0070   -5.6950  -13.6220 C.3   145  SER145      0.2020
    134  C         -9.5290   -6.5820  -12.4890 C.2   145  SER145      0.2619
    135  O         -8.6690   -6.1760  -11.6950 O.2   145  SER145     -0.2717
    136  CB        -8.7950   -5.2640  -14.4630 C.3   145  SER145      0.2103
    137  OG        -8.0760   -6.4080  -14.9300 O.3   145  SER145     -0.2182
    138  N        -10.0750   -7.7900  -12.4250 N.am  146  ALA146     -0.1965
    139  CA        -9.5560   -8.8110  -11.5340 C.3   146  ALA146      0.1728
    140  C         -8.1370   -9.2210  -11.9130 C.2   146  ALA146      0.2616
    141  O         -7.3660   -9.5640  -11.0370 O.2   146  ALA146     -0.2715
    142  CB       -10.4540  -10.0280  -11.5380 C.3   146  ALA146      0.0334
    143  N         -7.7940   -9.1870  -13.2020 N.am  147  LYS147     -0.1977
    144  CA        -6.4780   -9.6570  -13.6620 C.3   147  LYS147      0.1596
    145  C         -5.3280   -8.7670  -13.1920 C.2   147  LYS147      0.2287
    146  O         -4.2790   -9.2810  -12.7910 O.2   147  LYS147     -0.2864
    147  CB        -6.4260   -9.7770  -15.1880 C.3   147  LYS147      0.0298
    148  CG        -5.0970  -10.3180  -15.7050 C.3   147  LYS147      0.0038
    149  CD        -5.1640  -10.6720  -17.1730 C.3   147  LYS147      0.0206
    150  CE        -3.7870  -10.9910  -17.7170 C.3   147  LYS147      0.1093
    151  NZ        -3.8470  -11.3940  -19.1430 N.3   147  LYS147     -0.1314
@<TRIPOS>BOND
     1   127   126    2
     2   126   125    1
     3   128   125    1
     4   128   129    1
     5   125   124    1
     6   131   129    1
     7   130   129    1
     8   119   118    2
     9   124   118   am
    10   118   117    1
    11   110   109    2
    12   151   150    1
    13   117   116    1
    14   117   120    1
    15   115   114    1
    16   113   114    1
    17   113   112    1
    18   123   121   ar
    19   111   112    1
    20   111   108    1
    21   109   108    1
    22   120   121    1
    23   121   122   ar
    24     4     3    2
    25   150   149    1
    26   102   101    2
    27   108   107    1
    28     8     7    2
    29   149   148    1
    30     3     2    1
    31     3     5   am
    32     6     7    1
    33     6     5    1
    34     7     9   am
    35    14    13    1
    36   101   107   am
    37   101   100    1
    38     1     2    1
    39     9    10    1
    40    10    13    1
    41    10    11    1
    42   148   147    1
    43    72    70   ar
    44    13    15    1
    45    61    60    2
    46    99   100    1
    47    71    70   ar
    48   100   103    1
    49   147   144    1
    50    12    11    2
    51    70    69    1
    52    11    16   am
    53    62    64    1
    54    62    63    1
    55    62    59    1
    56   137   136    1
    57    49    50   ar
    58    49    47   ar
    59    50    48   ar
    60    60    59    1
    61    60    65   am
    62    90    89    1
    63    90    91    1
    64   136   133    1
    65    69    66    1
    66   103   104    1
    67    59    58    1
    68    89    86    1
    69    16    17    1
    70   106   104   am
    71   104   105    2
    72    66    65    1
    73    66    67    1
    74   144   143    1
    75   144   145    1
    76   133   132    1
    77   133   134    1
    78    91    85    1
    79    47    45   ar
    80    48    46   ar
    81   143   140   am
    82   145   146    2
    83    17    18    1
    84    58    53   am
    85    86    85    1
    86    86    87    1
    87    67    68    2
    88    67    73   am
    89    54    53    2
    90    28    27    1
    91   134   138   am
    92   134   135    2
    93   138   139    1
    94    45    46   ar
    95    45    44    1
    96    53    52    1
    97    73    74    1
    98    76    75    2
    99   140   139    1
   100   140   141    2
   101    87    88    2
   102    18    20   am
   103    18    19    2
   104   142   139    1
   105    20    21    1
   106    39    36    1
   107    75    74    1
   108    27    26    1
   109    44    41    1
   110    74    77    1
   111    25    26    1
   112    25    24    1
   113    52    51    1
   114    52    55    1
   115    43    42    2
   116    42    51   am
   117    42    41    1
   118    21    24    1
   119    21    22    1
   120    77    78    1
   121    36    35    1
   122    36    37    1
   123    41    40    1
   124    35    31   am
   125    55    57    1
   126    55    56    1
   127    29    22   am
   128    29    30    1
   129    22    23    2
   130    37    38    2
   131    33    34    1
   132    33    30    1
   133    31    30    1
   134    31    32    2
   135    78    79   ar
   136    78    80   ar
   137    95    94    2
   138    79    81   ar
   139    94    93    1
   140    97    96    1
   141    80    82   ar
   142    81    83   ar
   143    96    93    1
   144    96    98    1
   145    93    92    1
   146    82    83   ar
   147    83    84    1
