@<TRIPOS>MOLECULE
tmp/2es2B00.pdb
 131 131 0 0 0
SMALL
GASTEIGER

@<TRIPOS>ATOM
      1  N          7.2070   -0.2940    7.4890 N.3     7  LYS7       -0.1231
      2  CA         6.5230   -1.2770    6.6190 C.3     7  LYS7        0.1693
      3  C          6.9760   -1.1430    5.1860 C.2     7  LYS7        0.2592
      4  O          7.2590   -2.1540    4.5010 O.2     7  LYS7       -0.2718
      5  CB         5.0160   -1.0450    6.6790 C.3     7  LYS7        0.0285
      6  CG         4.2180   -2.1760    6.1070 C.3     7  LYS7        0.0035
      7  CD         2.8180   -1.6920    5.9700 C.3     7  LYS7        0.0206
      8  CE         1.9380   -2.7450    5.4250 C.3     7  LYS7        0.1093
      9  NZ         0.5530   -2.2660    5.1370 N.3     7  LYS7       -0.1314
     10  N          6.9810    0.1170    4.7580 N.am    8  TRP8       -0.1976
     11  CA         7.3760    0.5360    3.4380 C.3     8  TRP8        0.1640
     12  C          8.1110    1.8250    3.5760 C.2     8  TRP8        0.2290
     13  O          7.6850    2.7330    4.3200 O.2     8  TRP8       -0.2864
     14  CB         6.1630    0.8730    2.5600 C.3     8  TRP8        0.0576
     15  CG         5.2370   -0.2640    2.2780 C.ar    8  TRP8        0.0006
     16  CD1        3.9350   -0.3670    2.6600 C.ar    8  TRP8        0.0946
     17  CD2        5.5160   -1.4530    1.5260 C.ar    8  TRP8        0.0152
     18  NE1        3.4020   -1.5670    2.2170 N.ar    8  TRP8       -0.2442
     19  CE2        4.3340   -2.2210    1.4860 C.ar    8  TRP8        0.0810
     20  CE3        6.6420   -1.9450    0.8620 C.ar    8  TRP8        0.0012
     21  CZ2        4.2610   -3.4530    0.8220 C.ar    8  TRP8        0.0191
     22  CZ3        6.5640   -3.1460    0.2150 C.ar    8  TRP8        0.0001
     23  CH2        5.3880   -3.8880    0.1910 C.ar    8  TRP8        0.0015
     24  N         11.6010    8.5810   -3.3260 N.3    13  LYS13      -0.1245
     25  CA        10.7300    9.7270   -3.0840 C.3    13  LYS13       0.1561
     26  C         10.6440   10.2030   -1.6100 C.2    13  LYS13       0.2260
     27  O         10.0220   11.2090   -1.3230 O.2    13  LYS13      -0.2867
     28  CB         9.3240    9.4500   -3.5880 C.3    13  LYS13       0.0271
     29  CG         9.1720    9.3110   -5.0940 C.3    13  LYS13       0.0035
     30  CD         7.8130    8.6700   -5.4340 C.3    13  LYS13       0.0206
     31  CE         7.6080    8.5310   -6.9650 C.3    13  LYS13       0.1093
     32  NZ         6.2630    7.9770   -7.2450 N.3    13  LYS13      -0.1314
     33  N          9.2260    8.8660    1.3220 N.3    15  PHE15      -0.1241
     34  CA         8.0600    8.5950    2.1720 C.3    15  PHE15       0.1605
     35  C          7.8010    7.1360    2.2640 C.2    15  PHE15       0.2264
     36  O          8.2080    6.3200    1.4200 O.2    15  PHE15      -0.2867
     37  CB         6.7820    9.3930    1.7230 C.3    15  PHE15       0.0534
     38  CG         6.1440    8.8730    0.4400 C.ar   15  PHE15      -0.0203
     39  CD1        6.5710    9.3120   -0.7910 C.ar   15  PHE15      -0.0042
     40  CD2        5.1350    7.9290    0.4880 C.ar   15  PHE15      -0.0042
     41  CE1        5.9900    8.7950   -1.9670 C.ar   15  PHE15      -0.0003
     42  CE2        4.5800    7.4320   -0.6530 C.ar   15  PHE15      -0.0003
     43  CZ         5.0030    7.8670   -1.8780 C.ar   15  PHE15      -0.0000
     44  N          5.5710    4.1330    5.1550 N.3    17  PHE17      -0.1241
     45  CA         4.6040    3.7180    6.1370 C.3    17  PHE17       0.1605
     46  C          5.2790    2.9390    7.2740 C.2    17  PHE17       0.2264
     47  O          6.0990    2.0010    7.0510 O.2    17  PHE17      -0.2867
     48  CB         3.4410    2.8840    5.4880 C.3    17  PHE17       0.0534
     49  CG         2.6040    3.7080    4.5430 C.ar   17  PHE17      -0.0203
     50  CD1        3.0010    3.9030    3.2300 C.ar   17  PHE17      -0.0042
     51  CD2        1.5030    4.4180    5.0120 C.ar   17  PHE17      -0.0042
     52  CE1        2.3000    4.7900    2.3990 C.ar   17  PHE17      -0.0003
     53  CE2        0.7920    5.2200    4.1860 C.ar   17  PHE17      -0.0003
     54  CZ         1.1700    5.3970    2.8770 C.ar   17  PHE17      -0.0000
     55  N         -1.5170    1.6410   10.0340 N.3    25  ASP25      -0.1239
     56  CA        -0.2280    2.1210    9.5350 C.3    25  ASP25       0.1674
     57  C         -0.1920    3.6030    9.6190 C.2    25  ASP25       0.2266
     58  O         -1.2230    4.2810    9.5260 O.2    25  ASP25      -0.2867
     59  CB         0.0050    1.7210    8.0710 C.3    25  ASP25       0.1410
     60  CG        -0.0590    0.2400    7.8520 C.2    25  ASP25       0.3668
     61  OD1        0.2270   -0.5340    8.8130 O.co2  25  ASP25      -0.2456
     62  OD2       -0.4020   -0.2760    6.7390 O.co2  25  ASP25      -0.2456
     63  N          1.6880    7.0370    8.1350 N.3    27  PHE27      -0.1241
     64  CA         2.4430    7.6540    7.0590 C.3    27  PHE27       0.1605
     65  C          3.6320    8.4670    7.5900 C.2    27  PHE27       0.2264
     66  O          3.4980    9.2340    8.5600 O.2    27  PHE27      -0.2867
     67  CB         1.5110    8.5250    6.2140 C.3    27  PHE27       0.0534
     68  CG         2.2380    9.3970    5.2040 C.ar   27  PHE27      -0.0203
     69  CD1        2.4770    8.9840    3.8890 C.ar   27  PHE27      -0.0042
     70  CD2        2.6880   10.6200    5.5740 C.ar   27  PHE27      -0.0042
     71  CE1        3.1690    9.8450    2.9730 C.ar   27  PHE27      -0.0003
     72  CE2        3.3560   11.4400    4.6790 C.ar   27  PHE27      -0.0003
     73  CZ         3.6040   10.9980    3.3830 C.ar   27  PHE27      -0.0000
     74  N          6.9290   10.8770    6.1940 N.3    29  HIS29      -0.1226
     75  CA         7.6930   11.5610    5.2050 C.3    29  HIS29       0.1752
     76  C          9.1210   11.7860    5.7050 C.2    29  HIS29       0.2596
     77  O          9.3590   11.8740    6.9150 O.2    29  HIS29      -0.2718
     78  CB         7.0270   12.9060    4.9180 C.3    29  HIS29       0.0759
     79  CG         7.6810   13.6890    3.8290 C.ar   29  HIS29       0.0818
     80  ND1        8.5040   14.7430    4.1070 N.ar   29  HIS29      -0.2268
     81  CD2        7.6750   13.5620    2.4850 C.ar   29  HIS29       0.1154
     82  CE1        8.9570   15.2700    2.9840 C.ar   29  HIS29       0.1986
     83  NE2        8.4710   14.5700    1.9810 N.ar   29  HIS29      -0.2212
     84  N         10.0590   11.9520    4.7720 N.am   30  PHE30      -0.1962
     85  CA        11.4730   12.0030    5.1420 C.3    30  PHE30       0.1771
     86  C         11.7430   13.1340    6.1110 C.2    30  PHE30       0.2620
     87  O         12.6330   13.0660    6.9380 O.2    30  PHE30      -0.2715
     88  CB        12.3990   12.0610    3.9050 C.3    30  PHE30       0.0574
     89  CG        12.4830   13.3870    3.2370 C.ar   30  PHE30      -0.0200
     90  CD1       13.3260   14.3360    3.7200 C.ar   30  PHE30      -0.0042
     91  CD2       11.7790   13.6330    2.0820 C.ar   30  PHE30      -0.0042
     92  CE1       13.4630   15.5920    3.0910 C.ar   30  PHE30      -0.0003
     93  CE2       11.8850   14.8000    1.4410 C.ar   30  PHE30      -0.0003
     94  CZ        12.7320   15.8380    1.9480 C.ar   30  PHE30      -0.0000
     95  N         10.9170   14.1470    6.0550 N.am   31  SER31      -0.1950
     96  CA        11.1910   15.3340    6.8350 C.3    31  SER31       0.1924
     97  C         10.9850   15.0620    8.3240 C.2    31  SER31       0.2314
     98  O         11.4560   15.8060    9.1560 O.2    31  SER31      -0.2863
     99  CB        10.3060   16.5000    6.3840 C.3    31  SER31       0.2116
    100  OG         8.9890   16.0310    6.1260 O.3    31  SER31      -0.2180
    101  N         -3.3940   16.4860    5.9950 N.3    56  ARG56      -0.1231
    102  CA        -4.2170   15.3830    5.4480 C.3    56  ARG56       0.1694
    103  C         -4.2250   14.1040    6.2850 C.2    56  ARG56       0.2593
    104  O         -3.9950   12.9770    5.7740 O.2    56  ARG56      -0.2718
    105  CB        -3.7000   15.0240    4.0670 C.3    56  ARG56       0.0321
    106  CG        -3.7790   16.2050    3.1230 C.3    56  ARG56       0.0489
    107  CD        -3.1950   15.8770    1.8240 C.3    56  ARG56       0.2205
    108  NE        -3.0480   17.0240    0.9510 N.pl3  56  ARG56      -0.0865
    109  CZ        -2.2400   17.0070   -0.0970 C.cat  56  ARG56       0.5346
    110  NH1       -1.4930   15.9170   -0.3700 N.pl3  56  ARG56       0.1354
    111  NH2       -2.1420   18.0880   -0.8500 N.pl3  56  ARG56       0.1354
    112  N         -4.5230   14.2560    7.5680 N.am   57  GLY57      -0.1943
    113  CA        -4.6920   13.0940    8.4240 C.3    57  GLY57       0.1998
    114  C         -3.4410   12.9040    9.2290 C.2    57  GLY57       0.2481
    115  O         -2.5440   13.7240    9.1580 O.2    57  GLY57      -0.2729
    116  N         -3.3900   11.8480   10.0260 N.am   58  PRO58      -0.2715
    117  CA        -2.2340   11.6200   10.8700 C.3    58  PRO58       0.1536
    118  C         -0.9470   11.3140   10.0900 C.2    58  PRO58       0.2598
    119  O         -0.9740   10.6230    9.0630 O.2    58  PRO58      -0.2715
    120  CB        -2.6490   10.4220   11.7430 C.3    58  PRO58       0.0310
    121  CG        -3.8160    9.8000   11.0540 C.3    58  PRO58       0.0237
    122  CD        -4.4430   10.8320   10.2090 C.3    58  PRO58       0.0939
    123  N          0.1620   11.8440   10.5710 N.am   59  GLN59      -0.1978
    124  CA         1.5040   11.5290   10.0300 C.3    59  GLN59       0.1601
    125  C          2.4850   11.3220   11.1720 C.2    59  GLN59       0.2287
    126  O          2.2800   11.8140   12.2780 O.2    59  GLN59      -0.2864
    127  CB         2.0340   12.7170    9.2330 C.3    59  GLN59       0.0394
    128  CG         1.3140   13.0080    7.9750 C.3    59  GLN59       0.0908
    129  CD         2.0030   14.1200    7.2070 C.2    59  GLN59       0.2608
    130  OE1        2.6270   14.9750    7.8070 O.2    59  GLN59      -0.2717
    131  NE2        1.8900   14.0970    5.8850 N.am   59  GLN59      -0.0878
@<TRIPOS>BOND
     1    32    31    1
     2    31    30    1
     3    30    29    1
     4    29    28    1
     5    28    25    1
     6    24    25    1
     7    25    26    1
     8    41    43   ar
     9    41    39   ar
    10    43    42   ar
    11    26    27    2
    12   111   109    1
    13    39    38   ar
    14    42    40   ar
    15   110   109    1
    16   109   108    2
    17    23    22   ar
    18    23    21   ar
    19    22    20   ar
    20    38    40   ar
    21    38    37    1
    22    21    19   ar
    23    20    17   ar
    24   108   107    1
    25    33    34    1
    26    36    35    2
    27    93    94   ar
    28    93    91   ar
    29    19    17   ar
    30    19    18   ar
    31    17    15   ar
    32    37    34    1
    33   107   106    1
    34    94    92   ar
    35    83    81   ar
    36    83    82   ar
    37    91    89   ar
    38    34    35    1
    39    18    16   ar
    40    15    14    1
    41    15    16   ar
    42    52    54   ar
    43    52    50   ar
    44    81    79   ar
    45    14    11    1
    46    54    53   ar
    47    71    73   ar
    48    71    69   ar
    49    82    80   ar
    50    92    90   ar
    51   106   105    1
    52    50    49   ar
    53    89    90   ar
    54    89    88    1
    55    73    72   ar
    56    11    12    1
    57    11    10    1
    58    12    13    2
    59    79    80   ar
    60    79    78    1
    61    69    68   ar
    62    88    85    1
    63   105   102    1
    64    53    51   ar
    65     4     3    2
    66    49    51   ar
    67    49    48    1
    68    72    70   ar
    69    10     3   am
    70    84    85    1
    71    84    76   am
    72    78    75    1
    73     9     8    1
    74    85    86    1
    75    44    45    1
    76     3     2    1
    77    68    70   ar
    78    68    67    1
    79    75    76    1
    80    75    74    1
    81     8     7    1
    82   102   101    1
    83   102   103    1
    84    48    45    1
    85    76    77    2
    86   104   103    2
    87   131   129   am
    88     7     6    1
    89    95    86   am
    90    95    96    1
    91     6     5    1
    92    86    87    2
    93   100    99    1
    94    45    46    1
    95    67    64    1
    96   103   112   am
    97    99    96    1
    98     2     5    1
    99     2     1    1
   100    62    60   ar
   101    96    97    1
   102    47    46    2
   103    64    65    1
   104    64    63    1
   105   129   130    2
   106   129   128    1
   107   112   113    1
   108    65    66    2
   109    60    59    1
   110    60    61   ar
   111   128   127    1
   112    59    56    1
   113    97    98    2
   114   113   114    1
   115   119   118    2
   116   115   114    2
   117   114   116   am
   118   127   124    1
   119    58    57    2
   120    56    57    1
   121    56    55    1
   122   116   122    1
   123   116   117    1
   124   124   123    1
   125   124   125    1
   126   118   123   am
   127   118   117    1
   128   122   121    1
   129   117   120    1
   130   121   120    1
   131   125   126    2
