@<TRIPOS>MOLECULE
tmp/2esmA00.pdb
 153 143 0 0 0
SMALL
GASTEIGER

@<TRIPOS>ATOM
      1  N         47.8060   94.4380   31.6330 N.3    77  ILE77      -0.1231
      2  CA        49.1900   94.4350   31.1480 C.3    77  ILE77       0.1692
      3  C         50.0010   95.6410   31.6360 C.2    77  ILE77       0.2593
      4  O         51.0370   95.9780   31.0570 O.2    77  ILE77      -0.2718
      5  CB        49.2530   94.3680   29.5950 C.3    77  ILE77       0.0266
      6  CG1       48.3650   95.4600   28.9750 C.3    77  ILE77       0.0019
      7  CG2       48.8610   92.9720   29.1010 C.3    77  ILE77       0.0020
      8  CD1       48.5250   95.6310   27.4770 C.3    77  ILE77       0.0001
      9  N         49.5310   96.2790   32.7030 N.am   78  GLY78      -0.1942
     10  CA        50.1960   97.4560   33.2440 C.3    78  GLY78       0.2014
     11  C         49.3340   98.1770   34.2540 C.2    78  GLY78       0.2638
     12  O         48.1300   98.3350   34.0550 O.2    78  GLY78      -0.2714
     13  N         49.9620   98.6090   35.3420 N.am   79  ARG79      -0.1977
     14  CA        49.2810   99.3060   36.4230 C.3    79  ARG79       0.1597
     15  C         50.0910  100.5360   36.8210 C.2    79  ARG79       0.2287
     16  O         51.2560  100.6800   36.4410 O.2    79  ARG79      -0.2864
     17  CB        49.1240   98.3710   37.6290 C.3    79  ARG79       0.0334
     18  CG        48.1990   98.8760   38.7440 C.3    79  ARG79       0.0492
     19  CD        46.8290   98.2110   38.7040 C.3    79  ARG79       0.2205
     20  NE        46.9470   96.7540   38.6840 N.pl3  79  ARG79      -0.0865
     21  CZ        45.9530   95.9030   38.9240 C.cat  79  ARG79       0.5346
     22  NH1       44.7360   96.3450   39.2200 N.pl3  79  ARG79       0.1354
     23  NH2       46.1800   94.5990   38.8710 N.pl3  79  ARG79       0.1354
     24  N         46.2610   99.6710   32.6690 N.3    85  VAL85      -0.1245
     25  CA        46.1670   99.5010   31.2220 C.3    85  VAL85       0.1561
     26  C         45.8540   98.0280   30.9660 C.2    85  VAL85       0.2260
     27  O         46.5230   97.1460   31.5110 O.2    85  VAL85      -0.2867
     28  CB        47.4990   99.8810   30.5170 C.3    85  VAL85       0.0252
     29  CG1       47.4400   99.5760   29.0200 C.3    85  VAL85       0.0019
     30  CG2       47.8340  101.3520   30.7420 C.3    85  VAL85       0.0019
     31  N         44.7560   98.3290   23.5160 N.3    98  ALA98      -0.1245
     32  CA        45.2750   98.5150   24.8580 C.3    98  ALA98       0.1562
     33  C         44.5480   99.7150   25.4490 C.2    98  ALA98       0.2260
     34  O         44.8260  100.8630   25.0920 O.2    98  ALA98      -0.2867
     35  CB        46.7710   98.7470   24.8250 C.3    98  ALA98       0.0290
     36  N         43.4780  102.2090   28.4580 N.3   100  LYS100     -0.1245
     37  CA        44.0050  102.7840   29.6870 C.3   100  LYS100      0.1561
     38  C         42.8860  103.4130   30.5090 C.2   100  LYS100      0.2260
     39  O         42.1780  104.3030   30.0330 O.2   100  LYS100     -0.2867
     40  CB        45.0810  103.8230   29.3600 C.3   100  LYS100      0.0271
     41  CG        45.7260  104.4870   30.5650 C.3   100  LYS100      0.0035
     42  CD        46.9910  105.2240   30.1600 C.3   100  LYS100      0.0206
     43  CE        47.5550  106.0260   31.3180 C.3   100  LYS100      0.1093
     44  NZ        48.8670  106.6450   30.9800 N.3   100  LYS100     -0.1314
     45  N         48.2530  114.0240   27.2040 N.3   119  GLU119     -0.1245
     46  CA        48.3160  112.6430   26.7490 C.3   119  GLU119      0.1567
     47  C         47.2280  112.3360   25.7210 C.2   119  GLU119      0.2260
     48  O         47.5010  111.7050   24.6980 O.2   119  GLU119     -0.2867
     49  CB        48.2170  111.6860   27.9370 C.3   119  GLU119      0.0388
     50  CG        48.7670  110.3000   27.6530 C.3   119  GLU119      0.1160
     51  CD        48.7190  109.3800   28.8580 C.2   119  GLU119      0.3649
     52  OE1       49.1130  108.2040   28.7130 O.co2 119  GLU119     -0.2457
     53  OE2       48.2930  109.8200   29.9480 O.co2 119  GLU119     -0.2457
     54  N         52.3500  106.2820   20.2400 N.3   132  VAL132     -0.1245
     55  CA        51.2200  105.3690   20.4120 C.3   132  VAL132      0.1561
     56  C         49.9440  106.1090   20.0130 C.2   132  VAL132      0.2260
     57  O         49.7550  107.2790   20.3760 O.2   132  VAL132     -0.2867
     58  CB        51.1190  104.8450   21.8710 C.3   132  VAL132      0.0252
     59  CG1       49.7980  104.1170   22.1090 C.3   132  VAL132      0.0019
     60  CG2       52.2850  103.9190   22.1790 C.3   132  VAL132      0.0019
     61  N         43.8630  102.8810   23.0980 N.3   148  MET148     -0.1230
     62  CA        45.0550  103.0670   22.2770 C.3   148  MET148      0.1702
     63  C         45.3450  101.8130   21.4620 C.2   148  MET148      0.2592
     64  O         44.6690  100.7930   21.6160 O.2   148  MET148     -0.2718
     65  CB        46.2670  103.3850   23.1560 C.3   148  MET148      0.0401
     66  CG        46.0640  104.5030   24.1680 C.3   148  MET148      0.0596
     67  SD        47.3150  104.4600   25.4670 S.3   148  MET148     -0.1393
     68  CE        46.8010  103.0240   26.4030 C.3   148  MET148      0.0692
     69  N         46.3530  101.8920   20.5970 N.am  149  GLU149     -0.1966
     70  CA        46.8320  100.7120   19.8850 C.3   149  GLU149      0.1733
     71  C         47.6960   99.8540   20.7980 C.2   149  GLU149      0.2616
     72  O         48.4890  100.3660   21.5940 O.2   149  GLU149     -0.2715
     73  CB        47.5880  101.0820   18.6020 C.3   149  GLU149      0.0429
     74  CG        48.8060  101.9820   18.7840 C.3   149  GLU149      0.1163
     75  CD        49.5970  102.1690   17.4990 C.2   149  GLU149      0.3649
     76  OE1       50.2630  103.2160   17.3640 O.co2 149  GLU149     -0.2457
     77  OE2       49.5590  101.2760   16.6250 O.co2 149  GLU149     -0.2457
     78  N         47.5210   98.5440   20.6770 N.am  150  TYR150     -0.1960
     79  CA        48.2680   97.5820   21.4690 C.3   150  TYR150      0.1771
     80  C         49.6560   97.3740   20.8820 C.2   150  TYR150      0.2619
     81  O         49.8040   97.1500   19.6780 O.2   150  TYR150     -0.2715
     82  CB        47.5000   96.2600   21.5370 C.3   150  TYR150      0.0574
     83  CG        48.2160   95.1310   22.2450 C.ar  150  TYR150     -0.0198
     84  CD1       48.6700   95.2730   23.5580 C.ar  150  TYR150     -0.0009
     85  CD2       48.4130   93.9060   21.6090 C.ar  150  TYR150     -0.0009
     86  CE1       49.3180   94.2280   24.2110 C.ar  150  TYR150      0.0417
     87  CE2       49.0550   92.8550   22.2550 C.ar  150  TYR150      0.0417
     88  CZ        49.5060   93.0240   23.5530 C.ar  150  TYR150      0.1957
     89  OH        50.1450   91.9880   24.1960 O.3   150  TYR150     -0.2866
     90  N         50.6650   97.4640   21.7440 N.am  151  MET151     -0.1977
     91  CA        52.0520   97.2470   21.3570 C.3   151  MET151      0.1605
     92  C         52.5030   95.8870   21.8780 C.2   151  MET151      0.2287
     93  O         52.9740   95.7850   23.0090 O.2   151  MET151     -0.2864
     94  CB        52.9470   98.3550   21.9170 C.3   151  MET151      0.0413
     95  CG        52.5740   99.7660   21.4810 C.3   151  MET151      0.0598
     96  SD        53.1800  100.1790   19.8370 S.3   151  MET151     -0.1393
     97  CE        51.8110   99.6660   18.8010 C.3   151  MET151      0.0692
     98  N         57.6530   96.6060   26.4460 N.3   155  ASP155     -0.1239
     99  CA        58.5080   97.7740   26.6480 C.3   155  ASP155      0.1674
    100  C         59.9960   97.4250   26.6350 C.2   155  ASP155      0.2266
    101  O         60.3710   96.2500   26.5830 O.2   155  ASP155     -0.2867
    102  CB        58.1270   98.5330   27.9320 C.3   155  ASP155      0.1410
    103  CG        58.2730   97.6910   29.1900 C.2   155  ASP155      0.3668
    104  OD1       57.3730   97.7630   30.0510 O.co2 155  ASP155     -0.2456
    105  OD2       59.2780   96.9630   29.3320 O.co2 155  ASP155     -0.2456
    106  N         60.4190  102.2720   30.3300 N.3   197  ASP197     -0.1225
    107  CA        59.0360  101.8890   30.6410 C.3   197  ASP197      0.1805
    108  C         58.0540  102.3960   29.5890 C.2   197  ASP197      0.2597
    109  O         57.1010  101.7020   29.2340 O.2   197  ASP197     -0.2718
    110  CB        58.6140  102.4040   32.0220 C.3   197  ASP197      0.1424
    111  CG        59.1880  101.5820   33.1580 C.2   197  ASP197      0.3668
    112  OD1       60.3630  101.8040   33.5210 O.co2 197  ASP197     -0.2456
    113  OD2       58.4560  100.7280   33.7030 O.co2 197  ASP197     -0.2456
    114  N         58.3030  103.6020   29.0860 N.am  198  ASN198     -0.1974
    115  CA        57.4130  104.2400   28.1200 C.3   198  ASN198      0.1688
    116  C         57.7790  103.9480   26.6690 C.2   198  ASN198      0.2292
    117  O         57.0720  104.3610   25.7440 O.2   198  ASN198     -0.2864
    118  CB        57.3670  105.7480   28.3680 C.3   198  ASN198      0.1181
    119  CG        56.8870  106.0920   29.7650 C.2   198  ASN198      0.2629
    120  OD1       56.0130  105.4240   30.3210 O.2   198  ASN198     -0.2716
    121  ND2       57.4590  107.1430   30.3420 N.am  198  ASN198     -0.0877
    122  N         57.8080  101.4480   23.8880 N.3   200  LEU200     -0.1245
    123  CA        57.1350  100.2080   23.5250 C.3   200  LEU200      0.1561
    124  C         57.5020   99.7640   22.1200 C.2   200  LEU200      0.2260
    125  O         57.8750  100.5820   21.2770 O.2   200  LEU200     -0.2867
    126  CB        55.6150  100.3520   23.6460 C.3   200  LEU200      0.0270
    127  CG        54.9620  100.7940   24.9630 C.3   200  LEU200      0.0019
    128  CD1       53.6020  100.1580   25.0510 C.3   200  LEU200      0.0001
    129  CD2       55.7680  100.4120   26.1910 C.3   200  LEU200      0.0001
    130  N         54.9240  105.8880   24.6180 N.3   210  ALA210     -0.1231
    131  CA        53.6080  105.8880   25.2530 C.3   210  ALA210      0.1694
    132  C         53.7160  106.7440   26.5080 C.2   210  ALA210      0.2592
    133  O         54.8120  107.1940   26.8420 O.2   210  ALA210     -0.2718
    134  CB        53.1970  104.4720   25.6090 C.3   210  ALA210      0.0304
    135  N         52.5970  106.9650   27.2010 N.am  211  ASP211     -0.1974
    136  CA        52.5800  107.7430   28.4500 C.3   211  ASP211      0.1709
    137  C         53.2410  109.1180   28.3100 C.2   211  ASP211      0.2293
    138  O         54.4570  109.2600   28.4830 O.2   211  ASP211     -0.2864
    139  CB        53.2380  106.9610   29.5990 C.3   211  ASP211      0.1436
    140  CG        52.3070  105.9420   30.2280 C.2   211  ASP211      0.3671
    141  OD1       51.8870  104.9940   29.5300 O.co2 211  ASP211     -0.2456
    142  OD2       52.0060  106.0830   31.4330 O.co2 211  ASP211     -0.2456
    143  N         54.8340   90.7630   28.0650 N.3   363  PHE363     -0.1241
    144  CA        54.4090   91.5640   29.2080 C.3   363  PHE363      0.1605
    145  C         54.3570   90.6860   30.4480 C.2   363  PHE363      0.2264
    146  O         53.7450   89.6140   30.4270 O.2   363  PHE363     -0.2867
    147  CB        53.0300   92.1790   28.9540 C.3   363  PHE363      0.0534
    148  CG        53.0100   93.1880   27.8450 C.ar  363  PHE363     -0.0203
    149  CD1       53.3730   94.5090   28.0850 C.ar  363  PHE363     -0.0042
    150  CD2       52.6200   92.8210   26.5620 C.ar  363  PHE363     -0.0042
    151  CE1       53.3530   95.4460   27.0630 C.ar  363  PHE363     -0.0003
    152  CE2       52.5990   93.7530   25.5340 C.ar  363  PHE363     -0.0003
    153  CZ        52.9640   95.0690   25.7890 C.ar  363  PHE363     -0.0000
@<TRIPOS>BOND
     1    77    75   ar
     2    76    75   ar
     3    75    74    1
     4    73    74    1
     5    73    70    1
     6    97    96    1
     7    81    80    2
     8    96    95    1
     9    70    69    1
    10    70    71    1
    11    56    57    2
    12    56    55    1
    13    54    55    1
    14    55    58    1
    15    69    63   am
    16    78    71   am
    17    78    79    1
    18    71    72    2
    19    80    79    1
    20    80    90   am
    21   125   124    2
    22    91    90    1
    23    91    92    1
    24    91    94    1
    25    63    64    2
    26    63    62    1
    27    79    82    1
    28    95    94    1
    29    82    83    1
    30    85    83   ar
    31    85    87   ar
    32    58    59    1
    33    58    60    1
    34    92    93    2
    35   124   123    1
    36    83    84   ar
    37    87    88   ar
    38    62    61    1
    39    62    65    1
    40    65    66    1
    41    31    32    1
    42   123   126    1
    43   123   122    1
    44    88    89    1
    45    88    86   ar
    46    84    86   ar
    47   126   127    1
    48    66    67    1
    49   130   131    1
    50    48    47    2
    51    35    32    1
    52    32    33    1
    53   127   128    1
    54   127   129    1
    55    34    33    2
    56   131   134    1
    57   131   132    1
    58    67    68    1
    59   152   153   ar
    60   152   150   ar
    61    47    46    1
    62   117   116    2
    63   153   151   ar
    64    98    99    1
    65   132   133    2
    66   132   135   am
    67   150   148   ar
    68   101   100    2
    69   100    99    1
    70    99   102    1
    71   116   115    1
    72    46    45    1
    73    46    49    1
    74   151   149   ar
    75   135   136    1
    76     8     6    1
    77    50    49    1
    78    50    51    1
    79   148   149   ar
    80   148   147    1
    81   102   103    1
    82   143   144    1
    83   115   118    1
    84   115   114    1
    85   137   136    1
    86   137   138    2
    87   118   119    1
    88   136   139    1
    89    36    37    1
    90    52    51   ar
    91    51    53   ar
    92   147   144    1
    93     6     5    1
    94    29    28    1
    95   114   108   am
    96     7     5    1
    97   103   105   ar
    98   103   104   ar
    99   144   145    1
   100   109   108    2
   101    40    37    1
   102    40    41    1
   103   141   140   ar
   104   108   107    1
   105     5     2    1
   106   139   140    1
   107    37    38    1
   108   119   120    2
   109   119   121   am
   110    39    38    2
   111    42    41    1
   112    42    43    1
   113   140   142   ar
   114   106   107    1
   115   146   145    2
   116    28    30    1
   117    28    25    1
   118   107   110    1
   119    26    25    1
   120    26    27    2
   121    44    43    1
   122     4     3    2
   123     2     1    1
   124     2     3    1
   125    25    24    1
   126     3     9   am
   127   110   111    1
   128     9    10    1
   129   111   112   ar
   130   111   113   ar
   131    10    11    1
   132    12    11    2
   133    11    13   am
   134    13    14    1
   135    14    15    1
   136    14    17    1
   137    16    15    2
   138    17    18    1
   139    20    19    1
   140    20    21    2
   141    19    18    1
   142    23    21    1
   143    21    22    1
