@<TRIPOS>MOLECULE
tmp/2esrB00.pdb
 87 86 0 0 0
SMALL
GASTEIGER

@<TRIPOS>ATOM
      1  N         -4.1520   49.0610   49.4490 N.3    11  TYR11      -0.1227
      2  CA        -3.4160   48.3960   50.5210 C.3    11  TYR11       0.1736
      3  C         -4.0550   47.0720   50.9020 C.2    11  TYR11       0.2595
      4  O         -5.2490   46.8810   50.6940 O.2    11  TYR11      -0.2718
      5  CB        -3.3240   49.3330   51.7270 C.3    11  TYR11       0.0548
      6  CG        -2.5400   50.5790   51.3920 C.ar   11  TYR11      -0.0200
      7  CD1       -1.1540   50.5260   51.2340 C.ar   11  TYR11      -0.0009
      8  CD2       -3.1870   51.7910   51.1350 C.ar   11  TYR11      -0.0009
      9  CE1       -0.4330   51.6420   50.8220 C.ar   11  TYR11       0.0417
     10  CE2       -2.4710   52.9120   50.7210 C.ar   11  TYR11       0.0417
     11  CZ        -1.0970   52.8280   50.5650 C.ar   11  TYR11       0.1957
     12  OH        -0.3840   53.9240   50.1290 O.3    11  TYR11      -0.2866
     13  N         -3.2580   46.1630   51.4590 N.am   12  PHE12      -0.1962
     14  CA        -3.7460   44.8370   51.8430 C.3    12  PHE12       0.1771
     15  C         -3.6060   44.5150   53.3290 C.2    12  PHE12       0.2620
     16  O         -2.8380   45.1530   54.0480 O.2    12  PHE12      -0.2715
     17  CB        -3.0170   43.7640   51.0290 C.3    12  PHE12       0.0574
     18  CG        -3.1380   43.9460   49.5440 C.ar   12  PHE12      -0.0200
     19  CD1       -4.3650   43.7890   48.9070 C.ar   12  PHE12      -0.0042
     20  CD2       -2.0280   44.2900   48.7830 C.ar   12  PHE12      -0.0042
     21  CE1       -4.4830   43.9730   47.5330 C.ar   12  PHE12      -0.0003
     22  CE2       -2.1350   44.4770   47.4080 C.ar   12  PHE12      -0.0003
     23  CZ        -3.3670   44.3180   46.7840 C.ar   12  PHE12      -0.0000
     24  N         -4.3430   43.4970   53.7670 N.am   13  ASN13      -0.1958
     25  CA        -4.3500   43.0650   55.1650 C.3    13  ASN13       0.1819
     26  C         -3.5860   41.7700   55.4380 C.2    13  ASN13       0.2621
     27  O         -3.9740   40.9950   56.3130 O.2    13  ASN13      -0.2715
     28  CB        -5.7950   42.8890   55.6440 C.3    13  ASN13       0.1195
     29  CG        -6.5530   44.2000   55.7160 C.2    13  ASN13       0.2630
     30  OD1       -7.7800   44.2130   55.8290 O.2    13  ASN13      -0.2716
     31  ND2       -5.8270   45.3110   55.6690 N.am   13  ASN13      -0.0877
     32  N         -2.5100   41.5320   54.6950 N.am   14  GLY14      -0.1954
     33  CA        -1.7310   40.3220   54.9000 C.3    14  GLY14       0.1869
     34  C         -2.2350   39.1380   54.0950 C.2    14  GLY14       0.2309
     35  O         -3.3410   39.1730   53.5540 O.2    14  GLY14      -0.2863
     36  N         -4.0590   33.7450   48.8360 N.3    81  ASP81      -0.1225
     37  CA        -5.0910   34.7700   48.9560 C.3    81  ASP81       0.1805
     38  C         -5.1430   35.7190   47.7600 C.2    81  ASP81       0.2597
     39  O         -6.1890   36.3010   47.4570 O.2    81  ASP81      -0.2718
     40  CB        -4.8550   35.5660   50.2400 C.3    81  ASP81       0.1424
     41  CG        -4.7010   34.6650   51.4590 C.2    81  ASP81       0.3668
     42  OD1       -3.5600   34.4870   51.9450 O.co2  81  ASP81      -0.2456
     43  OD2       -5.7220   34.1190   51.9170 O.co2  81  ASP81      -0.2456
     44  N         -4.0060   35.8780   47.0920 N.am   82  LEU82      -0.1979
     45  CA        -3.9040   36.7500   45.9270 C.3    82  LEU82       0.1596
     46  C         -3.0500   36.0450   44.8830 C.2    82  LEU82       0.2287
     47  O         -1.9080   35.6810   45.1500 O.2    82  LEU82      -0.2864
     48  CB        -3.2500   38.0810   46.3170 C.3    82  LEU82       0.0297
     49  CG        -2.9930   39.1050   45.2010 C.3    82  LEU82       0.0022
     50  CD1       -4.2900   39.4160   44.4670 C.3    82  LEU82       0.0001
     51  CD2       -2.4120   40.3820   45.8170 C.3    82  LEU82       0.0001
     52  N        -11.2270   33.3460   50.6950 N.3   110  GLN110     -0.1231
     53  CA       -11.3020   34.7260   50.2350 C.3   110  GLN110      0.1698
     54  C        -10.1190   34.9040   49.3010 C.2   110  GLN110      0.2592
     55  O         -9.0240   35.2490   49.7370 O.2   110  GLN110     -0.2718
     56  CB       -11.1790   35.6890   51.4160 C.3   110  GLN110      0.0381
     57  CG       -12.3880   35.6810   52.3320 C.3   110  GLN110      0.0905
     58  CD       -13.5940   36.3370   51.6920 C.2   110  GLN110      0.2608
     59  OE1      -14.7100   35.8180   51.7630 O.2   110  GLN110     -0.2717
     60  NE2      -13.3750   37.4920   51.0670 N.am  110  GLN110     -0.0878
     61  N        -10.3340   34.6540   48.0180 N.am  111  VAL111     -0.1980
     62  CA        -9.2510   34.7760   47.0600 C.3   111  VAL111      0.1595
     63  C         -9.5530   35.7590   45.9470 C.2   111  VAL111      0.2287
     64  O        -10.7110   35.9950   45.5870 O.2   111  VAL111     -0.2864
     65  CB        -8.9230   33.4110   46.4230 C.3   111  VAL111      0.0276
     66  CG1      -10.0810   32.9570   45.5470 C.3   111  VAL111      0.0022
     67  CG2       -7.6390   33.5070   45.6140 C.3   111  VAL111      0.0022
     68  N        -16.9120   37.1190   48.3510 N.3   150  HIS150     -0.1241
     69  CA       -15.6610   37.7870   48.6910 C.3   150  HIS150      0.1621
     70  C        -16.0220   39.0560   49.4660 C.2   150  HIS150      0.2264
     71  O        -16.9010   39.8030   49.0440 O.2   150  HIS150     -0.2867
     72  CB       -14.9040   38.1530   47.4110 C.3   150  HIS150      0.0745
     73  CG       -13.5090   38.6400   47.6460 C.ar  150  HIS150      0.0817
     74  ND1      -13.2150   39.9520   47.9520 N.ar  150  HIS150     -0.2268
     75  CD2      -12.3250   37.9820   47.6360 C.ar  150  HIS150      0.1154
     76  CE1      -11.9110   40.0810   48.1190 C.ar  150  HIS150      0.1986
     77  NE2      -11.3480   38.9000   47.9330 N.ar  150  HIS150     -0.2212
     78  N        -13.5890   45.4200   50.0450 N.3   153  HIS153     -0.1241
     79  CA       -12.2870   45.9340   50.4480 C.3   153  HIS153      0.1621
     80  C        -12.4720   47.1790   51.3120 C.2   153  HIS153      0.2264
     81  O        -13.2260   48.0810   50.9540 O.2   153  HIS153     -0.2867
     82  CB       -11.4530   46.2920   49.2170 C.3   153  HIS153      0.0745
     83  CG       -10.8870   45.1050   48.5010 C.ar  153  HIS153      0.0817
     84  ND1      -11.6400   43.9950   48.1850 N.ar  153  HIS153     -0.2268
     85  CD2       -9.6430   44.8650   48.0200 C.ar  153  HIS153      0.1154
     86  CE1      -10.8850   43.1220   47.5400 C.ar  153  HIS153      0.1986
     87  NE2       -9.6690   43.6270   47.4270 N.ar  153  HIS153     -0.2212
@<TRIPOS>BOND
     1    50    49    1
     2    46    47    2
     3    46    45    1
     4    49    51    1
     5    49    48    1
     6    66    65    1
     7    64    63    2
     8    67    65    1
     9    45    48    1
    10    45    44    1
    11    63    62    1
    12    65    62    1
    13    23    22   ar
    14    23    21   ar
    15    62    61    1
    16    44    38   am
    17    22    20   ar
    18    72    73    1
    19    72    69    1
    20    87    86   ar
    21    87    85   ar
    22    39    38    2
    23    21    19   ar
    24    86    84   ar
    25    75    73   ar
    26    75    77   ar
    27    73    74   ar
    28    38    37    1
    29    77    76   ar
    30    74    76   ar
    31    61    54   am
    32    85    83   ar
    33    84    83   ar
    34    68    69    1
    35    83    82    1
    36    69    70    1
    37    20    18   ar
    38    36    37    1
    39    19    18   ar
    40    37    40    1
    41    71    70    2
    42    82    79    1
    43    54    55    2
    44    54    53    1
    45     1     2    1
    46    18    17    1
    47    78    79    1
    48    12    11    1
    49    53    52    1
    50    53    56    1
    51    40    41    1
    52    79    80    1
    53     2     3    1
    54     2     5    1
    55    11    10   ar
    56    11     9   ar
    57     4     3    2
    58    10     8   ar
    59     9     7   ar
    60     3    13   am
    61    81    80    2
    62    17    14    1
    63    60    58   am
    64     8     6   ar
    65     7     6   ar
    66     6     5    1
    67    56    57    1
    68    41    43   ar
    69    41    42   ar
    70    13    14    1
    71    58    59    2
    72    58    57    1
    73    14    15    1
    74    15    24   am
    75    15    16    2
    76    35    34    2
    77    24    25    1
    78    34    33    1
    79    32    33    1
    80    32    26   am
    81    25    26    1
    82    25    28    1
    83    26    27    2
    84    28    29    1
    85    31    29   am
    86    29    30    2
