@<TRIPOS>MOLECULE
tmp/2essA00.pdb
 106 101 0 0 0
SMALL
GASTEIGER

@<TRIPOS>ATOM
      1  N         48.8670    6.7500   12.1830 N.3    33  LEU33      -0.1245
      2  CA        48.7420    8.1200   12.6680 C.3    33  LEU33       0.1561
      3  C         49.7900    8.4730   13.7220 C.2    33  LEU33       0.2260
      4  O         50.3550    9.5550   13.6970 O.2    33  LEU33      -0.2867
      5  CB        47.3100    8.3740   13.1660 C.3    33  LEU33       0.0270
      6  CG        46.2320    8.1750   12.0850 C.3    33  LEU33       0.0019
      7  CD1       44.7970    8.5300   12.6090 C.3    33  LEU33       0.0001
      8  CD2       46.5760    8.9970   10.8260 C.3    33  LEU33       0.0001
      9  N         53.1210    9.0420   11.8050 N.3    36  ALA36      -0.1231
     10  CA        53.0690   10.3230   11.1800 C.3    36  ALA36       0.1694
     11  C         53.5170   11.3970   12.1690 C.2    36  ALA36       0.2592
     12  O         54.3230   12.2580   11.8480 O.2    36  ALA36      -0.2718
     13  CB        51.6320   10.5880   10.7110 C.3    36  ALA36       0.0304
     14  N         52.9730   11.3120   13.3800 N.am   37  GLY37      -0.1957
     15  CA        53.3340   12.1420   14.4850 C.3    37  GLY37       0.1869
     16  C         54.7760   12.0020   14.9250 C.2    37  GLY37       0.2309
     17  O         55.4000   13.0080   15.1440 O.2    37  GLY37      -0.2863
     18  N         56.9400   13.6610   11.9890 N.3    40  ALA40      -0.1245
     19  CA        56.7990   15.1160   11.9810 C.3    40  ALA40       0.1562
     20  C         57.4720   15.7490   13.1970 C.2    40  ALA40       0.2260
     21  O         58.1710   16.7320   13.0510 O.2    40  ALA40      -0.2867
     22  CB        55.3070   15.5630   11.9380 C.3    40  ALA40       0.0290
     23  N         58.0640   19.6310   12.3880 N.3    45  PHE45      -0.1227
     24  CA        56.9130   20.1360   11.6590 C.3    45  PHE45       0.1736
     25  C         55.5980   19.5040   12.0990 C.2    45  PHE45       0.2596
     26  O         54.6060   19.5270   11.3670 O.2    45  PHE45      -0.2718
     27  CB        57.0900   20.0610   10.1310 C.3    45  PHE45       0.0547
     28  CG        57.3190   18.6940    9.5600 C.ar   45  PHE45      -0.0202
     29  CD1       56.2460   17.8410    9.2740 C.ar   45  PHE45      -0.0042
     30  CD2       58.6140   18.2860    9.2260 C.ar   45  PHE45      -0.0042
     31  CE1       56.4670   16.6200    8.6900 C.ar   45  PHE45      -0.0003
     32  CE2       58.8600   17.0360    8.6440 C.ar   45  PHE45      -0.0003
     33  CZ        57.7810   16.2040    8.3740 C.ar   45  PHE45      -0.0000
     34  N         55.6080   18.9770   13.3090 N.am   46  GLY46      -0.1942
     35  CA        54.4520   18.4090   13.9330 C.3    46  GLY46       0.2014
     36  C         53.5310   19.4220   14.5990 C.2    46  GLY46       0.2638
     37  O         53.7110   20.6410   14.5080 O.2    46  GLY46      -0.2714
     38  N         52.5010   18.8960   15.2550 N.am   47  ILE47      -0.1977
     39  CA        51.4940   19.7260   15.8830 C.3    47  ILE47       0.1596
     40  C         52.1100   20.7420   16.8730 C.2    47  ILE47       0.2287
     41  O         51.7740   21.9190   16.8470 O.2    47  ILE47      -0.2864
     42  CB        50.4130   18.8380   16.5680 C.3    47  ILE47       0.0276
     43  CG1       49.5820   18.1400   15.4740 C.3    47  ILE47       0.0022
     44  CG2       49.4880   19.7170   17.4910 C.3    47  ILE47       0.0022
     45  CD1       48.4480   17.2510   15.9440 C.3    47  ILE47       0.0001
     46  N         47.4260   20.7860   12.5260 N.3    57  TRP57      -0.1241
     47  CA        47.1530   19.8210   11.4760 C.3    57  TRP57       0.1605
     48  C         45.8350   19.1340   11.7500 C.2    57  TRP57       0.2264
     49  O         45.5500   18.8190   12.9060 O.2    57  TRP57      -0.2867
     50  CB        48.2220   18.7320   11.4830 C.3    57  TRP57       0.0550
     51  CG        49.5840   19.1720   11.0610 C.ar   57  TRP57       0.0003
     52  CD1       50.7140   19.1700   11.8280 C.ar   57  TRP57       0.0946
     53  CD2       49.9890   19.5870    9.7520 C.ar   57  TRP57       0.0152
     54  NE1       51.7930   19.5910   11.0850 N.ar   57  TRP57      -0.2442
     55  CE2       51.3840   19.8230    9.8000 C.ar   57  TRP57       0.0810
     56  CE3       49.3220   19.7430    8.5310 C.ar   57  TRP57       0.0012
     57  CZ2       52.0990   20.2780    8.6940 C.ar   57  TRP57       0.0191
     58  CZ3       50.0400   20.1740    7.4240 C.ar   57  TRP57       0.0001
     59  CH2       51.4110   20.4460    7.5190 C.ar   57  TRP57       0.0015
     60  N         56.6570   12.2560    3.6790 N.3    81  VAL81      -0.1245
     61  CA        55.8900   13.3100    3.0460 C.3    81  VAL81       0.1561
     62  C         56.0670   13.2540    1.5600 C.2    81  VAL81       0.2260
     63  O         57.1770   13.3470    1.0680 O.2    81  VAL81      -0.2867
     64  CB        56.3230   14.7130    3.5670 C.3    81  VAL81       0.0252
     65  CG1       55.5600   15.8550    2.8560 C.3    81  VAL81       0.0019
     66  CG2       56.1010   14.8000    5.0680 C.3    81  VAL81       0.0019
     67  N         48.7650   18.6320    2.9890 N.3    89  THR89      -0.1218
     68  CA        49.9650   17.8160    2.8990 C.3    89  THR89       0.1862
     69  C         49.5750   16.3650    2.7360 C.2    89  THR89       0.2287
     70  O         48.6760   15.8970    3.4300 O.2    89  THR89      -0.2866
     71  CB        50.8350   17.9760    4.1550 C.3    89  THR89       0.1770
     72  OG1       51.3050   19.3160    4.1710 O.3    89  THR89      -0.2211
     73  CG2       52.0290   17.0410    4.1390 C.3    89  THR89       0.0375
     74  N         50.8160   12.6720    3.1560 N.3    91  ARG91      -0.1245
     75  CA        51.7390   11.8020    3.8380 C.3    91  ARG91       0.1563
     76  C         51.3940   10.3450    3.5010 C.2    91  ARG91       0.2260
     77  O         50.2400    9.9210    3.6390 O.2    91  ARG91      -0.2867
     78  CB        51.6430   11.9640    5.3330 C.3    91  ARG91       0.0307
     79  CG        52.3750   10.8340    6.0570 C.3    91  ARG91       0.0489
     80  CD        52.5190   11.0230    7.5160 C.3    91  ARG91       0.2205
     81  NE        53.3670   12.1350    7.9670 N.pl3  91  ARG91      -0.0865
     82  CZ        54.6860   12.1500    8.0130 C.cat  91  ARG91       0.5346
     83  NH1       55.4110   11.1830    7.4790 N.pl3  91  ARG91       0.1354
     84  NH2       55.2970   13.2140    8.5160 N.pl3  91  ARG91       0.1354
     85  N         46.1930   15.8330    4.9580 N.3   110  TRP110     -0.1241
     86  CA        46.1130   16.6440    6.1870 C.3   110  TRP110      0.1605
     87  C         45.9380   18.0950    5.8050 C.2   110  TRP110      0.2264
     88  O         46.6680   18.5920    4.9500 O.2   110  TRP110     -0.2867
     89  CB        47.4170   16.5150    7.0010 C.3   110  TRP110      0.0550
     90  CG        47.7140   15.1190    7.4220 C.ar  110  TRP110      0.0003
     91  CD1       48.2290   14.1150    6.6560 C.ar  110  TRP110      0.0946
     92  CD2       47.4980   14.5720    8.7070 C.ar  110  TRP110      0.0152
     93  NE1       48.3180   12.9870    7.3870 N.ar  110  TRP110     -0.2442
     94  CE2       47.8940   13.2380    8.6590 C.ar  110  TRP110      0.0810
     95  CE3       47.0350   15.1000    9.9200 C.ar  110  TRP110      0.0012
     96  CZ2       47.8450   12.4020    9.7750 C.ar  110  TRP110      0.0191
     97  CZ3       46.9590   14.2640   11.0130 C.ar  110  TRP110      0.0001
     98  CH2       47.3580   12.9380   10.9310 C.ar  110  TRP110      0.0015
     99  N         59.3240   21.3790    6.8200 N.3   126  ILE126     -0.1245
    100  CA        58.5960   20.2700    6.1560 C.3   126  ILE126      0.1561
    101  C         59.0430   20.0600    4.6950 C.2   126  ILE126      0.2260
    102  O         59.1610   18.9300    4.2380 O.2   126  ILE126     -0.2867
    103  CB        57.0570   20.3920    6.2700 C.3   126  ILE126      0.0252
    104  CG1       56.3650   19.0860    5.8330 C.3   126  ILE126      0.0019
    105  CG2       56.5170   21.5850    5.5050 C.3   126  ILE126      0.0019
    106  CD1       54.9220   18.9730    6.2260 C.3   126  ILE126      0.0001
@<TRIPOS>BOND
     1    63    62    2
     2    62    61    1
     3    69    68    1
     4    69    70    2
     5    65    64    1
     6    68    67    1
     7    68    71    1
     8    61    64    1
     9    61    60    1
    10    74    75    1
    11    76    77    2
    12    76    75    1
    13    64    66    1
    14    75    78    1
    15    73    71    1
    16    71    72    1
    17   102   101    2
    18   101   100    1
    19    88    87    2
    20    85    86    1
    21    78    79    1
    22   105   103    1
    23    87    86    1
    24   104   106    1
    25   104   103    1
    26    79    80    1
    27   100   103    1
    28   100    99    1
    29    86    89    1
    30    91    93   ar
    31    91    90   ar
    32    89    90    1
    33    93    94   ar
    34    90    92   ar
    35    58    59   ar
    36    58    56   ar
    37    83    82    1
    38    80    81    1
    39    59    57   ar
    40    81    82    2
    41    82    84    1
    42    33    32   ar
    43    33    31   ar
    44    56    53   ar
    45    32    30   ar
    46    94    92   ar
    47    94    96   ar
    48    31    29   ar
    49    57    55   ar
    50    92    95   ar
    51    30    28   ar
    52    29    28   ar
    53    28    27    1
    54    53    55   ar
    55    53    51   ar
    56    96    98   ar
    57    55    54   ar
    58    95    97   ar
    59    27    24    1
    60    13    10    1
    61     8     6    1
    62    98    97   ar
    63    51    50    1
    64    51    52   ar
    65    54    52   ar
    66    10     9    1
    67    10    11    1
    68    26    25    2
    69    47    50    1
    70    47    48    1
    71    47    46    1
    72    24    25    1
    73    24    23    1
    74    48    49    2
    75    12    11    2
    76    22    19    1
    77    19    18    1
    78    19    20    1
    79     6     7    1
    80     6     5    1
    81    25    34   am
    82    11    14   am
    83     1     2    1
    84     2     5    1
    85     2     3    1
    86    21    20    2
    87    34    35    1
    88    14    15    1
    89     4     3    2
    90    35    36    1
    91    15    16    1
    92    37    36    2
    93    36    38   am
    94    16    17    2
    95    38    39    1
    96    43    45    1
    97    43    42    1
    98    39    42    1
    99    39    40    1
   100    42    44    1
   101    41    40    2
