@<TRIPOS>MOLECULE
tmp/2essA03.pdb
 103 99 0 0 0
SMALL
GASTEIGER

@<TRIPOS>ATOM
      1  N         48.8670    6.7500   12.1830 N.3    33  LEU33      -0.1231
      2  CA        48.7420    8.1200   12.6680 C.3    33  LEU33       0.1693
      3  C         49.7900    8.4730   13.7220 C.2    33  LEU33       0.2592
      4  O         50.3550    9.5550   13.6970 O.2    33  LEU33      -0.2718
      5  CB        47.3100    8.3740   13.1660 C.3    33  LEU33       0.0284
      6  CG        46.2320    8.1750   12.0850 C.3    33  LEU33       0.0019
      7  CD1       44.7970    8.5300   12.6090 C.3    33  LEU33       0.0001
      8  CD2       46.5760    8.9970   10.8260 C.3    33  LEU33       0.0001
      9  N         50.0940    7.5440   14.6210 N.am   34  ASN34      -0.1974
     10  CA        51.1800    7.7530   15.5820 C.3    34  ASN34       0.1688
     11  C         52.5160    7.8970   14.8700 C.2    34  ASN34       0.2292
     12  O         53.3680    8.6860   15.3110 O.2    34  ASN34      -0.2864
     13  CB        51.2810    6.5890   16.5810 C.3    34  ASN34       0.1181
     14  CG        50.1590    6.6030   17.6400 C.2    34  ASN34       0.2629
     15  OD1       49.6040    7.6360   17.9570 O.2    34  ASN34      -0.2716
     16  ND2       49.8650    5.4380   18.2030 N.am   34  ASN34      -0.0877
     17  N         52.9730   11.3120   13.3800 N.3    37  GLY37      -0.1225
     18  CA        53.3340   12.1420   14.4850 C.3    37  GLY37       0.1811
     19  C         54.7760   12.0020   14.9250 C.2    37  GLY37       0.2280
     20  O         55.4000   13.0080   15.1440 O.2    37  GLY37      -0.2866
     21  N         52.5010   18.8960   15.2550 N.3    47  ILE47      -0.1245
     22  CA        51.4940   19.7260   15.8830 C.3    47  ILE47       0.1561
     23  C         52.1100   20.7420   16.8730 C.2    47  ILE47       0.2260
     24  O         51.7740   21.9190   16.8470 O.2    47  ILE47      -0.2867
     25  CB        50.4130   18.8380   16.5680 C.3    47  ILE47       0.0252
     26  CG1       49.5820   18.1400   15.4740 C.3    47  ILE47       0.0019
     27  CG2       49.4880   19.7170   17.4910 C.3    47  ILE47       0.0019
     28  CD1       48.4480   17.2510   15.9440 C.3    47  ILE47       0.0001
     29  N         47.4260   20.7860   12.5260 N.3    57  TRP57      -0.1227
     30  CA        47.1530   19.8210   11.4760 C.3    57  TRP57       0.1737
     31  C         45.8350   19.1340   11.7500 C.2    57  TRP57       0.2595
     32  O         45.5500   18.8190   12.9060 O.2    57  TRP57      -0.2718
     33  CB        48.2220   18.7320   11.4830 C.3    57  TRP57       0.0564
     34  CG        49.5840   19.1720   11.0610 C.ar   57  TRP57       0.0003
     35  CD1       50.7140   19.1700   11.8280 C.ar   57  TRP57       0.0946
     36  CD2       49.9890   19.5870    9.7520 C.ar   57  TRP57       0.0152
     37  NE1       51.7930   19.5910   11.0850 N.ar   57  TRP57      -0.2442
     38  CE2       51.3840   19.8230    9.8000 C.ar   57  TRP57       0.0810
     39  CE3       49.3220   19.7430    8.5310 C.ar   57  TRP57       0.0012
     40  CZ2       52.0990   20.2780    8.6940 C.ar   57  TRP57       0.0191
     41  CZ3       50.0400   20.1740    7.4240 C.ar   57  TRP57       0.0001
     42  CH2       51.4110   20.4460    7.5190 C.ar   57  TRP57       0.0015
     43  N         45.0470   18.9140   10.6920 N.am   58  VAL58      -0.1966
     44  CA        43.8340   18.1050   10.8110 C.3    58  VAL58       0.1727
     45  C         43.8090   17.0610    9.7100 C.2    58  VAL58       0.2616
     46  O         44.0650   17.3550    8.5700 O.2    58  VAL58      -0.2715
     47  CB        42.5280   18.9490   10.7960 C.3    58  VAL58       0.0290
     48  CG1       42.3940   19.7360   12.0910 C.3    58  VAL58       0.0023
     49  CG2       42.4740   19.8790    9.6020 C.3    58  VAL58       0.0023
     50  N         43.4930   15.8290   10.0980 N.am   59  LEU59      -0.1977
     51  CA        43.4110   14.7050    9.1890 C.3    59  LEU59       0.1596
     52  C         42.0960   14.7980    8.4480 C.2    59  LEU59       0.2287
     53  O         41.0250   14.7980    9.0690 O.2    59  LEU59      -0.2864
     54  CB        43.4550   13.3740    9.9500 C.3    59  LEU59       0.0297
     55  CG        43.3380   12.0770    9.1280 C.3    59  LEU59       0.0022
     56  CD1       44.4810   11.9670    8.0900 C.3    59  LEU59       0.0001
     57  CD2       43.3370   10.8740   10.0960 C.3    59  LEU59       0.0001
     58  N         46.1930   15.8330    4.9580 N.3   110  TRP110     -0.1241
     59  CA        46.1130   16.6440    6.1870 C.3   110  TRP110      0.1605
     60  C         45.9380   18.0950    5.8050 C.2   110  TRP110      0.2264
     61  O         46.6680   18.5920    4.9500 O.2   110  TRP110     -0.2867
     62  CB        47.4170   16.5150    7.0010 C.3   110  TRP110      0.0550
     63  CG        47.7140   15.1190    7.4220 C.ar  110  TRP110      0.0003
     64  CD1       48.2290   14.1150    6.6560 C.ar  110  TRP110      0.0946
     65  CD2       47.4980   14.5720    8.7070 C.ar  110  TRP110      0.0152
     66  NE1       48.3180   12.9870    7.3870 N.ar  110  TRP110     -0.2442
     67  CE2       47.8940   13.2380    8.6590 C.ar  110  TRP110      0.0810
     68  CE3       47.0350   15.1000    9.9200 C.ar  110  TRP110      0.0012
     69  CZ2       47.8450   12.4020    9.7750 C.ar  110  TRP110      0.0191
     70  CZ3       46.9590   14.2640   11.0130 C.ar  110  TRP110      0.0001
     71  CH2       47.3580   12.9380   10.9310 C.ar  110  TRP110      0.0015
     72  N         38.5090   11.6130   22.8740 N.3   162  ASP162     -0.1239
     73  CA        39.9010   12.0100   23.0720 C.3   162  ASP162      0.1674
     74  C         40.0500   13.2750   23.9210 C.2   162  ASP162      0.2266
     75  O         39.0590   13.8190   24.4690 O.2   162  ASP162     -0.2867
     76  CB        40.6220   12.1830   21.7070 C.3   162  ASP162      0.1410
     77  CG        40.1010   13.3940   20.8690 C.2   162  ASP162      0.3668
     78  OD1       39.5140   14.3810   21.3750 O.co2 162  ASP162     -0.2456
     79  OD2       40.3040   13.3360   19.6450 O.co2 162  ASP162     -0.2456
     80  N         40.5500   16.3050   23.1550 N.3   164  ASN164     -0.1240
     81  CA        39.8640   17.5040   22.6750 C.3   164  ASN164      0.1653
     82  C         38.3660   17.3810   22.8080 C.2   164  ASN164      0.2266
     83  O         37.6430   18.2630   22.3820 O.2   164  ASN164     -0.2867
     84  CB        40.2150   17.7970   21.2250 C.3   164  ASN164      0.1155
     85  CG        41.7110   17.8610   20.9970 C.2   164  ASN164      0.2627
     86  OD1       42.2480   17.1420   20.1660 O.2   164  ASN164     -0.2716
     87  ND2       42.3900   18.7010   21.7650 N.am  164  ASN164     -0.0877
     88  N         36.4000   15.1360   21.4520 N.3   166  HIS166     -0.1241
     89  CA        35.6250   14.5790   20.3540 C.3   166  HIS166      0.1621
     90  C         35.9140   13.0990   20.1440 C.2   166  HIS166      0.2264
     91  O         36.8780   12.5400   20.6570 O.2   166  HIS166     -0.2867
     92  CB        35.7650   15.3980   19.0620 C.3   166  HIS166      0.0745
     93  CG        37.1770   15.5850   18.6130 C.ar  166  HIS166      0.0817
     94  ND1       37.7290   16.8270   18.3850 N.ar  166  HIS166     -0.2268
     95  CD2       38.1480   14.6830   18.3410 C.ar  166  HIS166      0.1154
     96  CE1       38.9840   16.6820   17.9950 C.ar  166  HIS166      0.1986
     97  NE2       39.2660   15.3920   17.9690 N.ar  166  HIS166     -0.2212
     98  N         39.4640    9.5800   15.7480 N.3   169  SER169     -0.1217
     99  CA        39.5850    9.0440   14.4020 C.3   169  SER169      0.1889
    100  C         39.4670    7.5300   14.2970 C.2   169  SER169      0.2288
    101  O         38.8320    6.9930   13.3660 O.2   169  SER169     -0.2866
    102  CB        40.9660    9.4170   13.8600 C.3   169  SER169      0.2089
    103  OG        41.1290   10.8010   13.8440 O.3   169  SER169     -0.2183
@<TRIPOS>BOND
     1    61    60    2
     2    58    59    1
     3    60    59    1
     4    59    62    1
     5    64    66   ar
     6    64    63   ar
     7    62    63    1
     8    66    67   ar
     9    63    65   ar
    10    41    42   ar
    11    41    39   ar
    12    42    40   ar
    13    56    55    1
    14    52    53    2
    15    52    51    1
    16    39    36   ar
    17    46    45    2
    18    67    65   ar
    19    67    69   ar
    20    40    38   ar
    21    65    68   ar
    22    55    54    1
    23    55    57    1
    24    51    54    1
    25    51    50    1
    26    49    47    1
    27    45    50   am
    28    45    44    1
    29    36    38   ar
    30    36    34   ar
    31    69    71   ar
    32    38    37   ar
    33    68    70   ar
    34    43    44    1
    35    43    31   am
    36    47    44    1
    37    47    48    1
    38     8     6    1
    39    71    70   ar
    40    34    33    1
    41    34    35   ar
    42    37    35   ar
    43    30    33    1
    44    30    31    1
    45    30    29    1
    46    31    32    2
    47     6     7    1
    48     6     5    1
    49     1     2    1
    50     2     5    1
    51     2     3    1
    52   101   100    2
    53    17    18    1
    54     4     3    2
    55     3     9   am
    56   103   102    1
    57   102    99    1
    58   100    99    1
    59    99    98    1
    60    18    19    1
    61     9    10    1
    62    11    12    2
    63    11    10    1
    64    19    20    2
    65    21    22    1
    66    26    28    1
    67    26    25    1
    68    10    13    1
    69    22    25    1
    70    22    23    1
    71    25    27    1
    72    13    14    1
    73    24    23    2
    74    14    15    2
    75    14    16   am
    76    97    96   ar
    77    97    95   ar
    78    96    94   ar
    79    95    93   ar
    80    94    93   ar
    81    93    92    1
    82    92    89    1
    83    79    77   ar
    84    90    89    1
    85    90    91    2
    86    86    85    2
    87    89    88    1
    88    77    78   ar
    89    77    76    1
    90    85    84    1
    91    85    87   am
    92    84    81    1
    93    76    73    1
    94    83    82    2
    95    81    82    1
    96    81    80    1
    97    72    73    1
    98    73    74    1
    99    74    75    2
