@<TRIPOS>MOLECULE
tmp/2essA01.pdb
 93 91 0 0 0
SMALL
GASTEIGER

@<TRIPOS>ATOM
      1  N         45.4960    0.2480    1.7670 N.3    65  GLU65      -0.1231
      2  CA        45.3090   -0.8780    0.8370 C.3    65  GLU65       0.1699
      3  C         46.3080   -1.9750    1.1820 C.2    65  GLU65       0.2592
      4  O         47.5120   -1.7050    1.2980 O.2    65  GLU65      -0.2718
      5  CB        45.4720   -0.4290   -0.6150 C.3    65  GLU65       0.0402
      6  CG        44.9370   -1.4170   -1.6450 C.3    65  GLU65       0.1161
      7  CD        44.8900   -0.8370   -3.0680 C.2    65  GLU65       0.3649
      8  OE1       45.1090   -1.6390   -3.9990 O.co2  65  GLU65      -0.2457
      9  OE2       44.6440    0.3930   -3.2500 O.co2  65  GLU65      -0.2457
     10  N         45.7950   -3.1940    1.3600 N.am   66  LEU66      -0.1966
     11  CA        46.5710   -4.3150    1.9280 C.3    66  LEU66       0.1728
     12  C         46.4640   -5.5670    1.0980 C.2    66  LEU66       0.2616
     13  O         45.3870   -5.8830    0.6230 O.2    66  LEU66      -0.2715
     14  CB        46.0700   -4.6480    3.3380 C.3    66  LEU66       0.0311
     15  CG        46.1270   -3.5520    4.4060 C.3    66  LEU66       0.0022
     16  CD1       45.2050   -3.9240    5.5380 C.3    66  LEU66       0.0001
     17  CD2       47.5510   -3.3210    4.8810 C.3    66  LEU66       0.0001
     18  N         47.5880   -6.2770    0.9400 N.am   67  ASP67      -0.1971
     19  CA        47.5920   -7.6620    0.4530 C.3    67  ASP67       0.1709
     20  C         47.3530   -8.6420    1.6060 C.2    67  ASP67       0.2293
     21  O         46.7600   -9.7000    1.4300 O.2    67  ASP67      -0.2864
     22  CB        48.9480   -8.0120   -0.1540 C.3    67  ASP67       0.1436
     23  CG        49.1810   -7.3400   -1.4990 C.2    67  ASP67       0.3671
     24  OD1       48.1910   -6.9440   -2.1700 O.co2  67  ASP67      -0.2456
     25  OD2       50.3650   -7.2180   -1.8880 O.co2  67  ASP67      -0.2456
     26  N         58.7720   -8.0280    3.3950 N.3   101  LYS101     -0.1231
     27  CA        57.9320   -7.8560    2.2180 C.3   101  LYS101      0.1693
     28  C         56.9220   -6.7300    2.4480 C.2   101  LYS101      0.2592
     29  O         56.2570   -6.6810    3.4890 O.2   101  LYS101     -0.2718
     30  CB        57.2070   -9.1810    1.9380 C.3   101  LYS101      0.0285
     31  CG        56.1930   -9.1130    0.8070 C.3   101  LYS101      0.0035
     32  CD        55.3530  -10.3790    0.7440 C.3   101  LYS101      0.0206
     33  CE        54.2120  -10.2330   -0.2480 C.3   101  LYS101      0.1093
     34  NZ        54.7190   -9.9310   -1.6120 N.3   101  LYS101     -0.1314
     35  N         56.7850   -5.8240    1.4800 N.am  102  LYS102     -0.1966
     36  CA        55.7290   -4.8320    1.5290 C.3   102  LYS102      0.1728
     37  C         54.3740   -5.5080    1.3840 C.2   102  LYS102      0.2616
     38  O         54.1240   -6.2120    0.4290 O.2   102  LYS102     -0.2715
     39  CB        55.9600   -3.7170    0.4990 C.3   102  LYS102      0.0311
     40  CG        56.8290   -2.5890    1.0820 C.3   102  LYS102      0.0038
     41  CD        57.3320   -1.6760    0.0320 C.3   102  LYS102      0.0206
     42  CE        58.4180   -0.7790    0.5620 C.3   102  LYS102      0.1093
     43  NZ        59.6120   -1.5250    0.9880 N.3   102  LYS102     -0.1314
     44  N         53.5350   -5.3650    2.4000 N.am  103  ILE103     -0.1963
     45  CA        52.2150   -6.0070    2.4220 C.3   103  ILE103      0.1727
     46  C         51.0510   -5.0090    2.3070 C.2   103  ILE103      0.2617
     47  O         49.8910   -5.4050    2.1220 O.2   103  ILE103     -0.2715
     48  CB        51.9990   -6.9120    3.6700 C.3   103  ILE103      0.0290
     49  CG1       52.1600   -6.1300    4.9860 C.3   103  ILE103      0.0022
     50  CG2       52.8930   -8.1810    3.5510 C.3   103  ILE103      0.0023
     51  CD1       51.6530   -6.8160    6.2400 C.3   103  ILE103      0.0001
     52  N         51.3560   -3.7340    2.4100 N.am  104  GLY104     -0.1940
     53  CA        50.3360   -2.7120    2.1850 C.3   104  GLY104      0.2014
     54  C         50.8980   -1.3030    2.1070 C.2   104  GLY104      0.2638
     55  O         52.0940   -1.0620    2.3710 O.2   104  GLY104     -0.2714
     56  N         50.0100   -0.3780    1.7250 N.am  105  TYR105     -0.1973
     57  CA        50.3270    1.0230    1.6130 C.3   105  TYR105      0.1639
     58  C         49.1840    1.8480    2.1670 C.2   105  TYR105      0.2290
     59  O         48.0820    1.3830    2.2360 O.2   105  TYR105     -0.2864
     60  CB        50.5560    1.4330    0.1710 C.3   105  TYR105      0.0560
     61  CG        51.7190    0.7800   -0.4520 C.ar  105  TYR105     -0.0198
     62  CD1       52.9990    1.2480   -0.2240 C.ar  105  TYR105     -0.0009
     63  CD2       51.5500   -0.3460   -1.2420 C.ar  105  TYR105     -0.0009
     64  CE1       54.1060    0.5970   -0.7880 C.ar  105  TYR105      0.0417
     65  CE2       52.6320   -1.0000   -1.8000 C.ar  105  TYR105      0.0417
     66  CZ        53.8970   -0.5180   -1.5760 C.ar  105  TYR105      0.1957
     67  OH        54.9380   -1.1760   -2.1510 O.3   105  TYR105     -0.2866
     68  N         52.1320    2.9060   -4.5670 N.3   136  PRO136     -0.2102
     69  CA        51.3740    2.6150   -5.7790 C.3   136  PRO136      0.1504
     70  C         49.9240    2.2350   -5.4920 C.2   136  PRO136      0.2575
     71  O         49.5100    1.1290   -5.8100 O.2   136  PRO136     -0.2718
     72  CB        52.1420    1.4350   -6.3720 C.3   136  PRO136      0.0282
     73  CG        52.6220    0.6970   -5.2020 C.3   136  PRO136      0.0208
     74  CD        52.9520    1.7560   -4.1540 C.3   136  PRO136      0.0893
     75  N         49.1820    3.1270   -4.8410 N.am  137  ILE137     -0.1980
     76  CA        47.7510    2.9310   -4.6050 C.3   137  ILE137      0.1595
     77  C         47.0340    4.2340   -5.0010 C.2   137  ILE137      0.2287
     78  O         47.6310    5.3030   -4.9840 O.2   137  ILE137     -0.2864
     79  CB        47.4100    2.4720   -3.1490 C.3   137  ILE137      0.0276
     80  CG1       47.8100    3.5170   -2.0930 C.3   137  ILE137      0.0022
     81  CG2       48.0550    1.1030   -2.8230 C.3   137  ILE137      0.0022
     82  CD1       47.1500    3.3680   -0.7230 C.3   137  ILE137      0.0001
     83  N         40.4450   -5.4470    1.5930 N.3   191  ARG191     -0.1245
     84  CA        41.6140   -5.0870    0.7980 C.3   191  ARG191      0.1563
     85  C         41.8340   -3.5950    0.6680 C.2   191  ARG191      0.2260
     86  O         42.9740   -3.1510    0.5360 O.2   191  ARG191     -0.2867
     87  CB        41.6010   -5.7730   -0.5550 C.3   191  ARG191      0.0307
     88  CG        40.8840   -5.1150   -1.6900 C.3   191  ARG191      0.0489
     89  CD        41.5580   -5.5290   -3.0180 C.3   191  ARG191      0.2205
     90  NE        42.9120   -4.9540   -3.1250 N.pl3 191  ARG191     -0.0865
     91  CZ        44.0690   -5.5700   -2.8460 C.cat 191  ARG191      0.5346
     92  NH1       44.1250   -6.8450   -2.4450 N.pl3 191  ARG191      0.1354
     93  NH2       45.2070   -4.8940   -2.9840 N.pl3 191  ARG191      0.1354
@<TRIPOS>BOND
     1    72    69    1
     2    72    73    1
     3    71    70    2
     4    69    70    1
     5    69    68    1
     6    70    75   am
     7    73    74    1
     8    77    78    2
     9    77    76    1
    10    75    76    1
    11    76    79    1
    12    68    74    1
    13     8     7   ar
    14     9     7   ar
    15    79    81    1
    16    79    80    1
    17    90    89    1
    18    90    91    2
    19     7     6    1
    20    89    88    1
    21    93    91    1
    22    91    92    1
    23    24    23   ar
    24    67    66    1
    25    80    82    1
    26    25    23   ar
    27    65    66   ar
    28    65    63   ar
    29    88    87    1
    30     6     5    1
    31    34    33    1
    32    66    64   ar
    33    23    22    1
    34    63    61   ar
    35    64    62   ar
    36     5     2    1
    37    87    84    1
    38    61    62   ar
    39    61    60    1
    40    33    32    1
    41    22    19    1
    42    41    42    1
    43    41    40    1
    44    60    57    1
    45    38    37    2
    46    19    18    1
    47    19    20    1
    48    39    40    1
    49    39    36    1
    50    86    85    2
    51    42    43    1
    52    13    12    2
    53    85    84    1
    54    32    31    1
    55    84    83    1
    56    31    30    1
    57     2     3    1
    58     2     1    1
    59    18    12   am
    60    12    11    1
    61     3     4    2
    62     3    10   am
    63    10    11    1
    64    37    36    1
    65    37    44   am
    66    21    20    2
    67    35    36    1
    68    35    28   am
    69    57    56    1
    70    57    58    1
    71    56    54   am
    72    11    14    1
    73    30    27    1
    74    54    53    1
    75    54    55    2
    76    47    46    2
    77    58    59    2
    78    53    52    1
    79    27    28    1
    80    27    26    1
    81    46    52   am
    82    46    45    1
    83    44    45    1
    84    45    48    1
    85    28    29    2
    86    14    15    1
    87    50    48    1
    88    48    49    1
    89    15    17    1
    90    15    16    1
    91    49    51    1
