@<TRIPOS>MOLECULE
tmp/2estA00.pdb
 135 130 0 0 0
SMALL
GASTEIGER

@<TRIPOS>ATOM
      1  N          4.4970   46.2350   -3.7780 N.3    45  HIS45      -0.1297
      2  CA         4.9960   45.8780   -2.4010 C.3    45  HIS45       0.1306
      3  C          4.1600   46.6600   -1.3170 C.3    45  HIS45       0.2013
      4  O          4.2970   46.1940   -0.1810 O.3    45  HIS45      -0.2188
      5  CB         6.5240   46.0510   -2.2430 C.3    45  HIS45       0.0691
      6  CG         6.8870   47.5050   -2.2430 C.ar   45  HIS45       0.0814
      7  ND1        7.1910   48.3270   -3.2960 N.ar   45  HIS45      -0.2268
      8  CD2        7.0180   48.2810   -1.1360 C.ar   45  HIS45       0.1154
      9  CE1        7.5070   49.5100   -2.7920 C.ar   45  HIS45       0.1986
     10  NE2        7.3440   49.4760   -1.4830 N.ar   45  HIS45      -0.2212
     11  N          1.0770   44.2520   -0.3310 N.3    48  ASP48      -0.1295
     12  CA         1.4080   42.8090   -0.3010 C.3    48  ASP48       0.1359
     13  C          0.7560   41.8960    0.8280 C.3    48  ASP48       0.2015
     14  O          0.4470   40.6430    0.7600 O.3    48  ASP48      -0.2188
     15  CB         2.9310   42.6540   -0.1350 C.3    48  ASP48       0.1357
     16  CG         3.7660   42.3150   -1.3770 C.2    48  ASP48       0.3664
     17  OD1        3.2460   41.8090   -2.4080 O.co2  48  ASP48      -0.2456
     18  OD2        4.8960   42.7230   -1.0690 O.co2  48  ASP48      -0.2456
     19  N          7.0650   39.4820   -4.8840 N.3    85  THR85      -0.1218
     20  CA         7.4070   40.0850   -3.5970 C.3    85  THR85       0.1862
     21  C          8.8720   40.1830   -3.1760 C.2    85  THR85       0.2287
     22  O          9.4820   41.1260   -2.6640 O.2    85  THR85      -0.2866
     23  CB         6.6290   39.1770   -2.5810 C.3    85  THR85       0.1770
     24  OG1        5.3160   38.8780   -3.0560 O.3    85  THR85      -0.2211
     25  CG2        6.6030   39.9300   -1.2640 C.3    85  THR85       0.0375
     26  N         11.2050   39.5280   -5.2380 N.3    87  ASP87      -0.1225
     27  CA        12.1970   40.0050   -6.2320 C.3    87  ASP87       0.1805
     28  C         11.7250   41.4130   -6.5480 C.2    87  ASP87       0.2598
     29  O         11.1940   41.4930   -7.6610 O.2    87  ASP87      -0.2718
     30  CB        12.2710   38.9420   -7.3600 C.3    87  ASP87       0.1424
     31  CG        13.4480   39.1310   -8.2110 C.2    87  ASP87       0.3668
     32  OD1       14.2090   40.1310   -8.1510 O.co2  87  ASP87      -0.2456
     33  OD2       13.7420   38.2290   -9.0540 O.co2  87  ASP87      -0.2456
     34  N         11.9030   42.4590   -5.6970 N.am   88  VAL88      -0.1966
     35  CA        11.4670   43.8210   -6.2160 C.3    88  VAL88       0.1727
     36  C         12.4180   44.2520   -7.3750 C.2    88  VAL88       0.2616
     37  O         12.1660   45.1250   -8.2330 O.2    88  VAL88      -0.2715
     38  CB        11.3940   44.9130   -5.1700 C.3    88  VAL88       0.0290
     39  CG1       10.7740   44.4880   -3.8460 C.3    88  VAL88       0.0023
     40  CG2       12.6650   45.7120   -4.7560 C.3    88  VAL88       0.0023
     41  N         13.6050   43.7350   -7.5180 N.am   89  ALA89      -0.1977
     42  CA        14.5350   43.9700   -8.5570 C.3    89  ALA89       0.1597
     43  C         14.1460   43.4820   -9.9570 C.2    89  ALA89       0.2287
     44  O         14.7710   43.7980  -10.9580 O.2    89  ALA89      -0.2864
     45  CB        15.7380   43.0800   -8.3460 C.3    89  ALA89       0.0319
     46  N         23.7280   51.1200   -9.4380 N.3   164  TRP164     -0.1298
     47  CA        22.9560   49.9590   -9.0240 C.3   164  TRP164      0.1291
     48  C         23.2290   48.6140   -9.7090 C.3   164  TRP164      0.2013
     49  O         22.9400   47.4240   -9.2340 O.3   164  TRP164     -0.2188
     50  CB        21.5480   50.3610   -9.3700 C.3   164  TRP164      0.0497
     51  CG        20.8440   50.9070   -8.0380 C.ar  164  TRP164     -0.0001
     52  CD1       20.5180   52.2230   -7.9400 C.ar  164  TRP164      0.0946
     53  CD2       20.4390   50.2690   -6.8560 C.ar  164  TRP164      0.0152
     54  NE1       19.9190   52.3550   -6.6300 N.ar  164  TRP164     -0.2442
     55  CE2       19.8410   51.2460   -5.9980 C.ar  164  TRP164      0.0810
     56  CE3       20.4870   48.9820   -6.3820 C.ar  164  TRP164      0.0012
     57  CZ2       19.2360   51.0680   -4.7260 C.ar  164  TRP164      0.0191
     58  CZ3       20.0030   48.7980   -5.0270 C.ar  164  TRP164      0.0001
     59  CH2       19.3680   49.7750   -4.2670 C.ar  164  TRP164      0.0015
     60  N         20.5970   45.4990  -10.9130 N.3   167  THR167     -0.1274
     61  CA        19.5250   45.4700   -9.9490 C.3   167  THR167      0.1548
     62  C         18.4070   46.2350  -10.6720 C.3   167  THR167      0.2036
     63  O         17.2930   45.7810  -10.3780 O.3   167  THR167     -0.2187
     64  CB        20.0450   46.0330   -8.6020 C.3   167  THR167      0.1721
     65  OG1       21.1170   45.2520   -8.2640 O.3   167  THR167     -0.2215
     66  CG2       18.9530   45.9240   -7.6010 C.3   167  THR167      0.0371
     67  N         12.2030   57.5850    0.7830 N.3   184  CYS184     -0.1221
     68  CA        12.4860   56.7570    2.0620 C.3   184  CYS184      0.1808
     69  C         11.2830   55.9240    2.4310 C.2   184  CYS184      0.2601
     70  O         10.3330   56.1190    1.7080 O.2   184  CYS184     -0.2717
     71  CB        12.9540   57.7460    3.1010 C.3   184  CYS184      0.0970
     72  SG        13.8680   57.2630    4.6130 S.3   184  CYS184     -0.0800
     73  N         11.2940   55.0280    3.3720 N.am  185  GLN185     -0.1979
     74  CA        10.2170   54.0970    3.6650 C.3   185  GLN185      0.1601
     75  C          9.0250   54.9410    4.0640 C.2   185  GLN185      0.2287
     76  O          9.2400   55.8380    4.8540 O.2   185  GLN185     -0.2864
     77  CB        10.9530   53.3260    4.6810 C.3   185  GLN185      0.0394
     78  CG        11.8610   52.2170    4.3500 C.3   185  GLN185      0.0908
     79  CD        13.3370   52.4700    4.2070 C.2   185  GLN185      0.2608
     80  OE1       13.8310   53.4530    4.8990 O.2   185  GLN185     -0.2717
     81  NE2       14.1100   51.7520    3.5000 N.am  185  GLN185     -0.0878
     82  N          7.1760   54.7800   -0.7070 N.3   188  SER188     -0.1217
     83  CA         6.9500   53.7110   -1.6030 C.3   188  SER188      0.1889
     84  C          5.6520   53.8210   -2.3260 C.2   188  SER188      0.2288
     85  O          4.6170   54.0450   -1.6410 O.2   188  SER188     -0.2866
     86  CB         6.8660   52.4930   -0.6700 C.3   188  SER188      0.2089
     87  OG         8.0210   51.9300   -0.1130 O.3   188  SER188     -0.2183
     88  N          7.4960   55.0450   -6.7360 N.3   206  THR206     -0.1203
     89  CA         8.6360   54.8090   -5.8700 C.3   206  THR206      0.1994
     90  C          8.5990   53.2980   -5.4490 C.2   206  THR206      0.2619
     91  O          7.6120   52.7110   -4.9070 O.2   206  THR206     -0.2717
     92  CB         8.7510   55.7290   -4.6060 C.3   206  THR206      0.1784
     93  OG1        8.3000   57.0160   -5.0880 O.3   206  THR206     -0.2211
     94  CG2       10.1650   55.7230   -4.0410 C.3   206  THR206      0.0376
     95  N          9.8550   52.7800   -5.8100 N.am  207  SER207     -0.1937
     96  CA         9.9490   51.3380   -5.5920 C.3   207  SER207      0.2055
     97  C         10.9100   51.0050   -4.4550 C.2   207  SER207      0.2643
     98  O         10.5480   50.2860   -3.4770 O.2   207  SER207     -0.2714
     99  CB        10.3800   50.5910   -6.8860 C.3   207  SER207      0.2130
    100  OG        10.4380   49.1080   -6.7810 O.3   207  SER207     -0.2179
    101  N         12.1870   51.3090   -4.5530 N.am  208  PHE208     -0.1959
    102  CA        13.0120   50.9070   -3.4690 C.3   208  PHE208      0.1771
    103  C         14.1940   51.8490   -3.3340 C.2   208  PHE208      0.2619
    104  O         14.3040   52.6940   -4.2600 O.2   208  PHE208     -0.2715
    105  CB        13.4110   49.5220   -3.8760 C.3   208  PHE208      0.0574
    106  CG        14.2720   49.2520   -5.0270 C.ar  208  PHE208     -0.0200
    107  CD1       13.6740   48.8090   -6.1410 C.ar  208  PHE208     -0.0042
    108  CD2       15.5700   49.3440   -5.1030 C.ar  208  PHE208     -0.0042
    109  CE1       14.1990   48.3320   -7.3380 C.ar  208  PHE208     -0.0003
    110  CE2       16.1580   48.9410   -6.3590 C.ar  208  PHE208     -0.0003
    111  CZ        15.5070   48.4930   -7.4210 C.ar  208  PHE208     -0.0000
    112  N         14.9820   51.5330   -2.2880 N.am  209  VAL209     -0.1963
    113  CA        16.1630   52.3210   -1.9570 C.3   209  VAL209      0.1727
    114  C         17.2140   51.3030   -1.6410 C.2   209  VAL209      0.2617
    115  O         17.1250   50.0450   -1.6710 O.2   209  VAL209     -0.2715
    116  CB        15.7640   53.3550   -0.8280 C.3   209  VAL209      0.0290
    117  CG1       14.9920   54.6140   -1.4600 C.3   209  VAL209      0.0023
    118  CG2       15.0760   52.9240    0.4140 C.3   209  VAL209      0.0023
    119  N         18.3430   51.8030   -1.2640 N.am  210  SER210     -0.1936
    120  CA        19.5360   51.0100   -0.8960 C.3   210  SER210      0.2055
    121  C         19.1840   50.4930    0.4820 C.2   210  SER210      0.2639
    122  O         18.5800   51.1830    1.3770 O.2   210  SER210     -0.2714
    123  CB        20.8020   51.7860   -0.8810 C.3   210  SER210      0.2130
    124  OG        21.8210   51.0160   -0.4140 O.3   210  SER210     -0.2179
    125  N         19.5830   49.2920    0.7150 N.am  211  ARG211     -0.2030
    126  CA        19.5250   48.6310    2.0320 C.3   211  ARG211      0.1283
    127  C         20.4030   49.3950    2.9950 C.3   211  ARG211      0.2036
    128  O         19.8930   49.2810    4.1020 O.3   211  ARG211     -0.2185
    129  CB        20.0510   47.1890    2.0550 C.3   211  ARG211      0.0281
    130  CG        19.1370   46.0970    1.4300 C.3   211  ARG211      0.0488
    131  CD        19.9880   44.9300    0.8650 C.3   211  ARG211      0.2205
    132  NE        21.0700   44.5160    1.7910 N.pl3 211  ARG211     -0.0865
    133  CZ        22.3780   44.1600    1.8890 C.cat 211  ARG211      0.5346
    134  NH1       22.9770   44.3150    3.1310 N.pl3 211  ARG211      0.1354
    135  NH2       22.9240   43.6770    0.7300 N.pl3 211  ARG211      0.1354
@<TRIPOS>BOND
     1    44    43    2
     2    60    61    1
     3    62    63    1
     4    62    61    1
     5    43    42    1
     6    61    64    1
     7    48    49    1
     8    48    47    1
     9    46    47    1
    10    50    47    1
    11    50    51    1
    12    33    31   ar
    13    64    65    1
    14    64    66    1
    15    42    45    1
    16    42    41    1
    17    37    36    2
    18    31    32   ar
    19    31    30    1
    20    51    52   ar
    21    51    53   ar
    22    52    54   ar
    23    29    28    2
    24    41    36   am
    25   111   109   ar
    26   111   110   ar
    27    36    35    1
    28    30    27    1
    29   109   107   ar
    30    99   100    1
    31    99    96    1
    32    53    56   ar
    33    53    55   ar
    34    88    89    1
    35    54    55   ar
    36    28    27    1
    37    28    34   am
    38    56    58   ar
    39   110   108   ar
    40    27    26    1
    41    35    34    1
    42    35    38    1
    43   107   106   ar
    44    55    57   ar
    45    89    90    1
    46    89    92    1
    47    95    96    1
    48    95    90   am
    49    96    97    1
    50    90    91    2
    51    38    40    1
    52    38    39    1
    53   108   106   ar
    54    93    92    1
    55   106   105    1
    56    58    59   ar
    57    19    20    1
    58    57    59   ar
    59    92    94    1
    60   101    97   am
    61   101   102    1
    62    97    98    2
    63   104   103    2
    64   105   102    1
    65     1     2    1
    66    20    21    1
    67    20    23    1
    68   102   103    1
    69   103   112   am
    70     7     9   ar
    71     7     6   ar
    72    21    22    2
    73    24    23    1
    74     9    10   ar
    75    23    25    1
    76    17    16   ar
    77     2     5    1
    78     2     3    1
    79    84    85    2
    80    84    83    1
    81   112   113    1
    82     5     6    1
    83     6     8   ar
    84   113   114    1
    85   113   116    1
    86   115   114    2
    87   114   119   am
    88    83    82    1
    89    83    86    1
    90    10     8   ar
    91   117   116    1
    92    16    18   ar
    93    16    15    1
    94     3     4    1
    95   119   120    1
    96   120   123    1
    97   120   121    1
    98   123   124    1
    99   116   118    1
   100    86    87    1
   101    11    12    1
   102    12    15    1
   103    12    13    1
   104   121   125   am
   105   121   122    2
   106   125   126    1
   107   135   133    1
   108    14    13    1
   109    67    68    1
   110   131   130    1
   111   131   132    1
   112   130   129    1
   113    70    69    2
   114   132   133    2
   115   133   134    1
   116   126   129    1
   117   126   127    1
   118    68    69    1
   119    68    71    1
   120    69    73   am
   121   127   128    1
   122    71    72    1
   123    73    74    1
   124    81    79   am
   125    74    75    1
   126    74    77    1
   127    75    76    2
   128    79    78    1
   129    79    80    2
   130    78    77    1
