@<TRIPOS>MOLECULE
tmp/2etmB00.pdb
 146 136 0 0 0
SMALL
GASTEIGER

@<TRIPOS>ATOM
      1  N        -14.0280    0.0960   21.4880 N.3    14  ARG14      -0.1245
      2  CA       -12.6910    0.5990   21.1730 C.3    14  ARG14       0.1563
      3  C        -12.0790    1.1960   22.4090 C.2    14  ARG14       0.2260
      4  O        -12.5800    2.1700   22.9530 O.2    14  ARG14      -0.2867
      5  CB       -12.6930    1.6310   20.0300 C.3    14  ARG14       0.0307
      6  CG       -11.3600    2.4030   19.8840 C.3    14  ARG14       0.0489
      7  CD       -11.2790    3.2050   18.5840 C.3    14  ARG14       0.2205
      8  NE       -11.0160    4.6380   18.7740 N.pl3  14  ARG14      -0.0865
      9  CZ        -9.9120    5.1580   19.3140 C.cat  14  ARG14       0.5346
     10  NH1       -8.9400    4.3650   19.7360 N.pl3  14  ARG14       0.1354
     11  NH2       -9.7670    6.4800   19.4220 N.pl3  14  ARG14       0.1354
     12  N         -9.7880    3.2770   24.7070 N.3    16  ILE16      -0.1231
     13  CA        -9.1640    4.5800   24.5460 C.3    16  ILE16       0.1692
     14  C         -8.0710    4.7540   25.5820 C.2    16  ILE16       0.2593
     15  O         -7.5850    5.8530   25.8060 O.2    16  ILE16      -0.2718
     16  CB       -10.1680    5.7410   24.6400 C.3    16  ILE16       0.0266
     17  CG1      -10.8710    5.7490   25.9990 C.3    16  ILE16       0.0019
     18  CG2      -11.1670    5.6400   23.4950 C.3    16  ILE16       0.0020
     19  CD1      -12.0750    6.6740   26.0380 C.3    16  ILE16       0.0001
     20  N         -7.6710    3.6460   26.1970 N.am   17  GLY17      -0.1942
     21  CA        -6.6060    3.6890   27.1810 C.3    17  GLY17       0.2014
     22  C         -6.9090    2.8990   28.4280 C.2    17  GLY17       0.2639
     23  O         -7.8890    2.1640   28.4890 O.2    17  GLY17      -0.2714
     24  N         -6.0730    3.0470   29.4430 N.am   18  GLU18      -0.1963
     25  CA        -6.3230    2.3200   30.6690 C.3    18  GLU18       0.1733
     26  C         -6.2050    3.1910   31.9030 C.2    18  GLU18       0.2616
     27  O         -5.4350    4.1510   31.9390 O.2    18  GLU18      -0.2715
     28  CB        -5.3710    1.1270   30.7810 C.3    18  GLU18       0.0429
     29  CG        -3.9120    1.4950   31.0010 C.3    18  GLU18       0.1163
     30  CD        -3.0440    0.2710   31.2670 C.2    18  GLU18       0.3649
     31  OE1       -3.4230   -0.5570   32.1310 O.co2  18  GLU18      -0.2457
     32  OE2       -1.9830    0.1430   30.6170 O.co2  18  GLU18      -0.2457
     33  N         -6.9970    2.8470   32.9090 N.am   19  GLY19      -0.1955
     34  CA        -6.9870    3.5690   34.1650 C.3    19  GLY19       0.1869
     35  C         -6.1790    2.7330   35.1330 C.2    19  GLY19       0.2309
     36  O         -5.6200    1.7140   34.7290 O.2    19  GLY19      -0.2863
     37  N        -10.2090    1.4950   29.6260 N.3    24  VAL24      -0.1245
     38  CA       -11.3250    2.4300   29.5080 C.3    24  VAL24       0.1561
     39  C        -11.7310    2.3650   28.0320 C.2    24  VAL24       0.2260
     40  O        -10.8710    2.4500   27.1670 O.2    24  VAL24      -0.2867
     41  CB       -10.8810    3.8830   29.8540 C.3    24  VAL24       0.0252
     42  CG1      -12.0670    4.8450   29.7280 C.3    24  VAL24       0.0019
     43  CG2      -10.2820    3.9240   31.2400 C.3    24  VAL24       0.0019
     44  N        -14.6230    3.6130   24.7630 N.3    26  GLN26      -0.1245
     45  CA       -15.4150    4.7830   24.3950 C.3    26  GLN26       0.1566
     46  C        -16.8240    4.5250   23.9040 C.2    26  GLN26       0.2260
     47  O        -17.3910    5.3560   23.2130 O.2    26  GLN26      -0.2867
     48  CB       -14.6680    5.6320   23.3510 C.3    26  GLN26       0.0367
     49  CG       -14.8850    5.2340   21.9050 C.3    26  GLN26       0.0905
     50  CD       -13.9980    6.0070   20.9640 C.2    26  GLN26       0.2608
     51  OE1      -14.0680    7.2240   20.8870 O.2    26  GLN26      -0.2717
     52  NE2      -13.1510    5.3010   20.2440 N.am   26  GLN26      -0.0878
     53  N        -17.6460    7.3860   27.9910 N.3    40  ALA40      -0.1245
     54  CA       -16.4210    6.6710   28.2890 C.3    40  ALA40       0.1562
     55  C        -16.8590    5.6010   29.2720 C.2    40  ALA40       0.2260
     56  O        -17.7810    5.8120   30.0530 O.2    40  ALA40      -0.2867
     57  CB       -15.3950    7.6020   28.8990 C.3    40  ALA40       0.0290
     58  N        -15.2170    3.0150   32.0550 N.3    42  LYS42      -0.1245
     59  CA       -14.0690    2.4860   32.7910 C.3    42  LYS42       0.1561
     60  C        -14.4000    1.1010   33.2950 C.2    42  LYS42       0.2260
     61  O        -15.4820    0.8850   33.8350 O.2    42  LYS42      -0.2867
     62  CB       -13.7140    3.3600   33.9890 C.3    42  LYS42       0.0271
     63  CG       -12.7520    4.4730   33.6950 C.3    42  LYS42       0.0035
     64  CD       -12.3840    5.1860   34.9860 C.3    42  LYS42       0.0206
     65  CE       -11.0480    5.8820   34.8750 C.3    42  LYS42       0.1093
     66  NZ       -10.7400    6.6570   36.1140 N.3    42  LYS42      -0.1314
     67  N        -15.6160   16.6640   34.1820 N.3    72  VAL72      -0.1245
     68  CA       -16.1110   15.4350   33.5640 C.3    72  VAL72       0.1561
     69  C        -17.2970   14.8890   34.3410 C.2    72  VAL72       0.2260
     70  O        -17.2070   14.6160   35.5350 O.2    72  VAL72      -0.2867
     71  CB       -15.0260   14.3480   33.5210 C.3    72  VAL72       0.0252
     72  CG1      -15.6140   13.0550   32.9750 C.3    72  VAL72       0.0019
     73  CG2      -13.8560   14.8120   32.6560 C.3    72  VAL72       0.0019
     74  N        -18.9810    7.3490   32.2370 N.3    87  MET87      -0.1230
     75  CA       -18.7860    8.7820   32.2580 C.3    87  MET87       0.1702
     76  C        -19.0890    9.3760   30.8840 C.2    87  MET87       0.2592
     77  O        -19.3410    8.6630   29.9280 O.2    87  MET87      -0.2718
     78  CB       -17.3470    9.1020   32.6320 C.3    87  MET87       0.0401
     79  CG       -16.9900    8.6340   34.0270 C.3    87  MET87       0.0596
     80  SD       -15.3030    8.9950   34.4210 S.3    87  MET87      -0.1393
     81  CE       -15.1000    8.0380   35.9240 C.3    87  MET87       0.0692
     82  N        -19.0660   10.6910   30.7960 N.am   88  GLU88      -0.1966
     83  CA       -19.3350   11.3570   29.5420 C.3    88  GLU88       0.1733
     84  C        -18.0560   11.2680   28.7300 C.2    88  GLU88       0.2616
     85  O        -16.9610   11.2350   29.2930 O.2    88  GLU88      -0.2715
     86  CB       -19.6970   12.8200   29.7720 C.3    88  GLU88       0.0429
     87  CG       -18.4850   13.6990   30.0160 C.3    88  GLU88       0.1163
     88  CD       -18.8270   15.1630   29.9820 C.2    88  GLU88       0.3649
     89  OE1      -19.3090   15.6800   31.0050 O.co2  88  GLU88      -0.2457
     90  OE2      -18.6210   15.7910   28.9270 O.co2  88  GLU88      -0.2457
     91  N        -18.1860   11.2500   27.4070 N.am   89  LEU89      -0.1963
     92  CA       -17.0120   11.1310   26.5670 C.3    89  LEU89       0.1728
     93  C        -16.4830   12.4570   26.1020 C.2    89  LEU89       0.2616
     94  O        -17.2500   13.3220   25.6910 O.2    89  LEU89      -0.2715
     95  CB       -17.3320   10.2370   25.3620 C.3    89  LEU89       0.0311
     96  CG       -16.2070    9.7780   24.4240 C.3    89  LEU89       0.0022
     97  CD1      -15.8440   10.9090   23.5300 C.3    89  LEU89       0.0001
     98  CD2      -14.9850    9.2780   25.2060 C.3    89  LEU89       0.0001
     99  N        -15.1650   12.6240   26.1900 N.am   90  CYS90      -0.1954
    100  CA       -14.5060   13.8370   25.7170 C.3    90  CYS90       0.1843
    101  C        -13.7900   13.4490   24.4290 C.2    90  CYS90       0.2626
    102  O        -12.6250   13.0740   24.4430 O.2    90  CYS90      -0.2714
    103  CB       -13.5240   14.3810   26.7630 C.3    90  CYS90       0.0997
    104  SG       -14.3830   15.0210   28.2370 S.3    90  CYS90      -0.0797
    105  N        -14.5080   13.5800   23.3130 N.am   91  THR91      -0.1936
    106  CA       -14.0030   13.1840   21.9960 C.3    91  THR91       0.2028
    107  C        -12.5900   13.5690   21.5650 C.2    91  THR91       0.2642
    108  O        -11.9690   12.8110   20.8320 O.2    91  THR91      -0.2714
    109  CB       -15.0130   13.5580   20.8490 C.3    91  THR91       0.1808
    110  OG1      -15.1570   14.9820   20.7290 O.3    91  THR91      -0.2208
    111  CG2      -16.3780   12.9360   21.1390 C.3    91  THR91       0.0379
    112  N        -12.0490   14.6910   22.0320 N.am   92  LEU92      -0.1963
    113  CA       -10.6970   15.0670   21.6110 C.3    92  LEU92       0.1728
    114  C         -9.5660   14.5720   22.5060 C.2    92  LEU92       0.2617
    115  O         -8.4110   14.9960   22.3640 O.2    92  LEU92      -0.2715
    116  CB       -10.5960   16.5820   21.4220 C.3    92  LEU92       0.0311
    117  CG       -11.7440   17.1030   20.5480 C.3    92  LEU92       0.0022
    118  CD1      -11.6370   18.6150   20.4060 C.3    92  LEU92       0.0001
    119  CD2      -11.6950   16.4550   19.1810 C.3    92  LEU92       0.0001
    120  N         -9.8870   13.6880   23.4430 N.am   93  GLY93      -0.1940
    121  CA        -8.8380   13.1260   24.2870 C.3    93  GLY93       0.2014
    122  C         -8.1550   13.9790   25.3480 C.2    93  GLY93       0.2638
    123  O         -8.6870   14.9770   25.8210 O.2    93  GLY93      -0.2714
    124  N         -6.9490   13.5700   25.7090 N.am   94  GLU94      -0.1977
    125  CA        -6.1760   14.2220   26.7430 C.3    94  GLU94       0.1602
    126  C         -5.6220   15.5650   26.3200 C.2    94  GLU94       0.2287
    127  O         -5.2510   15.7520   25.1770 O.2    94  GLU94      -0.2864
    128  CB        -5.0570   13.2880   27.2050 C.3    94  GLU94       0.0415
    129  CG        -4.1210   13.9010   28.2350 C.3    94  GLU94       0.1163
    130  CD        -3.1860   12.8740   28.8480 C.2    94  GLU94       0.3649
    131  OE1       -1.9800   13.1710   28.9970 O.co2  94  GLU94      -0.2457
    132  OE2       -3.6660   11.7700   29.1890 O.co2  94  GLU94      -0.2457
    133  N         -1.6590   15.7100   24.9350 N.3    97  SER97      -0.1217
    134  CA        -1.5550   15.2750   23.5510 C.3    97  SER97       0.1889
    135  C         -2.1250   16.3660   22.6850 C.2    97  SER97       0.2288
    136  O         -1.4450   16.8960   21.8140 O.2    97  SER97      -0.2866
    137  CB        -2.3590   14.0040   23.3240 C.3    97  SER97       0.2089
    138  OG        -2.2340   13.1390   24.4270 O.3    97  SER97      -0.2183
    139  N         -9.2980   16.7110   30.1280 N.3   141  LEU141     -0.1245
    140  CA        -9.7730   16.1520   28.8780 C.3   141  LEU141      0.1561
    141  C        -10.3850   17.2190   27.9660 C.2   141  LEU141      0.2260
    142  O        -11.0100   18.1660   28.4290 O.2   141  LEU141     -0.2867
    143  CB       -10.7850   15.0480   29.1540 C.3   141  LEU141      0.0270
    144  CG       -10.2030   13.7870   29.8060 C.3   141  LEU141      0.0019
    145  CD1      -11.2850   12.7680   29.9860 C.3   141  LEU141      0.0001
    146  CD2       -9.0770   13.2130   28.9620 C.3   141  LEU141      0.0001
@<TRIPOS>BOND
     1     7     8    1
     2     7     6    1
     3     8     9    2
     4   119   117    1
     5     9    11    1
     6     9    10    1
     7     6     5    1
     8     5     2    1
     9    52    50   am
    10   118   117    1
    11   117   116    1
    12   110   109    1
    13   108   107    2
    14   109   111    1
    15   109   106    1
    16    51    50    2
    17    50    49    1
    18     2     1    1
    19     2     3    1
    20   116   113    1
    21   107   106    1
    22   107   112   am
    23   113   112    1
    24   113   114    1
    25   136   135    2
    26    49    48    1
    27   106   105    1
    28   115   114    2
    29     3     4    2
    30   114   120   am
    31   135   134    1
    32    47    46    2
    33   105   101   am
    34   137   134    1
    35   137   138    1
    36    48    45    1
    37   120   121    1
    38    18    16    1
    39    97    96    1
    40   134   133    1
    41    46    45    1
    42   121   122    1
    43    45    44    1
    44    96    98    1
    45    96    95    1
    46   101   102    2
    47   101   100    1
    48    13    16    1
    49    13    12    1
    50    13    14    1
    51    16    17    1
    52   127   126    2
    53   122   124   am
    54   122   123    2
    55    95    92    1
    56    14    15    2
    57    14    20   am
    58    94    93    2
    59   124   125    1
    60   100    99    1
    61   100   103    1
    62    17    19    1
    63    93    99   am
    64    93    92    1
    65    20    21    1
    66   126   125    1
    67    92    91    1
    68   125   128    1
    69   103   104    1
    70    40    39    2
    71    21    22    1
    72   128   129    1
    73    91    84   am
    74   141   142    2
    75   141   140    1
    76    53    54    1
    77    39    38    1
    78   129   130    1
    79    54    57    1
    80    54    55    1
    81    22    23    2
    82    22    24   am
    83    84    85    2
    84    84    83    1
    85   130   131   ar
    86   130   132   ar
    87   140   143    1
    88   140   139    1
    89    90    88   ar
    90   146   144    1
    91   143   144    1
    92    55    56    2
    93    24    25    1
    94    38    37    1
    95    38    41    1
    96    83    86    1
    97    83    82    1
    98    42    41    1
    99    86    87    1
   100   144   145    1
   101    41    43    1
   102    77    76    2
   103    88    87    1
   104    88    89   ar
   105    32    30   ar
   106    25    28    1
   107    25    26    1
   108    28    29    1
   109    82    76   am
   110    76    75    1
   111    29    30    1
   112    30    31   ar
   113    26    27    2
   114    26    33   am
   115    58    59    1
   116    74    75    1
   117    75    78    1
   118    78    79    1
   119    73    71    1
   120    59    60    1
   121    59    62    1
   122    33    34    1
   123    72    71    1
   124    60    61    2
   125    71    68    1
   126    68    67    1
   127    68    69    1
   128    63    62    1
   129    63    64    1
   130    79    80    1
   131    34    35    1
   132    69    70    2
   133    80    81    1
   134    36    35    2
   135    65    64    1
   136    65    66    1
