@<TRIPOS>MOLECULE
tmp/2etrB00.pdb
 153 143 0 0 0
SMALL
GASTEIGER

@<TRIPOS>ATOM
      1  N          1.9930  143.5040   20.4310 N.3    78  ILE78      -0.1231
      2  CA         0.6300  143.1600   19.9960 C.3    78  ILE78       0.1692
      3  C         -0.1360  142.2760   20.9930 C.2    78  ILE78       0.2593
      4  O         -1.3160  141.9750   20.7880 O.2    78  ILE78      -0.2718
      5  CB         0.6140  142.5080   18.5790 C.3    78  ILE78       0.0266
      6  CG1        1.5010  141.2520   18.5440 C.3    78  ILE78       0.0019
      7  CG2        1.0350  143.5260   17.5110 C.3    78  ILE78       0.0020
      8  CD1        1.3810  140.4330   17.2710 C.3    78  ILE78       0.0001
      9  N          0.5440  141.8700   22.0650 N.am   79  GLY79      -0.1942
     10  CA        -0.0470  141.0450   23.1210 C.3    79  GLY79       0.2014
     11  C          0.7750  141.1680   24.3910 C.2    79  GLY79       0.2638
     12  O          1.9820  141.3910   24.3220 O.2    79  GLY79      -0.2714
     13  N          0.1210  141.0430   25.5460 N.am   80  ARG80      -0.1977
     14  CA         0.7870  141.1690   26.8490 C.3    80  ARG80       0.1597
     15  C          0.0010  140.4330   27.9400 C.2    80  ARG80       0.2287
     16  O         -1.0350  139.8220   27.6630 O.2    80  ARG80      -0.2864
     17  CB         0.9920  142.6520   27.2040 C.3    80  ARG80       0.0334
     18  CG         1.8220  142.9250   28.4610 C.3    80  ARG80       0.0492
     19  CD         2.7490  144.1210   28.2930 C.3    80  ARG80       0.2205
     20  NE         2.0990  145.2640   27.6520 N.pl3  80  ARG80      -0.0865
     21  CZ         2.7470  146.3110   27.1490 C.cat  80  ARG80       0.5346
     22  NH1        4.0720  146.3770   27.2080 N.pl3  80  ARG80       0.1354
     23  NH2        2.0690  147.2990   26.5830 N.pl3  80  ARG80       0.1354
     24  N          3.6110  139.3570   23.5620 N.3    86  VAL86      -0.1245
     25  CA         3.7480  138.9820   22.1590 C.3    86  VAL86       0.1561
     26  C          4.0020  140.2470   21.3480 C.2    86  VAL86       0.2260
     27  O          3.2220  141.2010   21.4070 O.2    86  VAL86      -0.2867
     28  CB         2.4960  138.2400   21.6350 C.3    86  VAL86       0.0252
     29  CG1        2.6890  137.8040   20.1850 C.3    86  VAL86       0.0019
     30  CG2        2.1970  137.0370   22.5080 C.3    86  VAL86       0.0019
     31  N          6.0240  136.8900   14.6280 N.3    99  ALA99      -0.1245
     32  CA         5.4480  137.2490   15.9180 C.3    99  ALA99       0.1562
     33  C          6.2100  136.5120   17.0160 C.2    99  ALA99       0.2260
     34  O          6.2320  135.2780   17.0460 O.2    99  ALA99      -0.2867
     35  CB         3.9700  136.9040   15.9600 C.3    99  ALA99       0.0290
     36  N          6.9450  135.5790   20.9720 N.3   101  LYS101     -0.1245
     37  CA         6.3390  135.4400   22.2910 C.3   101  LYS101      0.1561
     38  C          7.4170  135.2530   23.3560 C.2   101  LYS101      0.2260
     39  O          8.2740  134.3730   23.2390 O.2   101  LYS101     -0.2867
     40  CB         5.3520  134.2680   22.3040 C.3   101  LYS101      0.0271
     41  CG         4.5910  134.0900   23.6110 C.3   101  LYS101      0.0035
     42  CD         3.4890  133.0530   23.4700 C.3   101  LYS101      0.0206
     43  CE         2.8630  132.7330   24.8180 C.3   101  LYS101      0.1093
     44  NZ         1.6880  131.8270   24.6820 N.3   101  LYS101     -0.1314
     45  N         -0.5060  127.4890   14.2610 N.3   133  VAL133     -0.1245
     46  CA         0.4850  128.5530   14.1040 C.3   133  VAL133      0.1561
     47  C          1.8830  127.9410   14.1830 C.2   133  VAL133      0.2260
     48  O          2.2260  127.2710   15.1620 O.2   133  VAL133     -0.2867
     49  CB         0.3080  129.6730   15.1640 C.3   133  VAL133      0.0252
     50  CG1        1.4480  130.6840   15.0920 C.3   133  VAL133      0.0019
     51  CG2       -1.0290  130.3750   14.9760 C.3   133  VAL133      0.0019
     52  N          7.1950  132.7730   15.9560 N.3   149  MET149     -0.1230
     53  CA         6.0720  132.1700   15.2420 C.3   149  MET149      0.1702
     54  C          5.7580  132.9590   13.9760 C.2   149  MET149      0.2592
     55  O          6.1980  134.1020   13.8300 O.2   149  MET149     -0.2718
     56  CB         4.8290  132.1330   16.1390 C.3   149  MET149      0.0401
     57  CG         5.0590  131.5670   17.5370 C.3   149  MET149      0.0596
     58  SD         3.6860  131.8910   18.6660 S.3   149  MET149     -0.1393
     59  CE         3.8020  133.6690   18.8760 C.3   149  MET149      0.0692
     60  N          5.0030  132.3500   13.0630 N.am  150  GLU150     -0.1966
     61  CA         4.4920  133.0750   11.9010 C.3   150  GLU150      0.1733
     62  C          3.4790  134.1180   12.3560 C.2   150  GLU150      0.2616
     63  O          2.6450  133.8510   13.2260 O.2   150  GLU150     -0.2715
     64  CB         3.8810  132.1300   10.8540 C.3   150  GLU150      0.0429
     65  CG         2.6860  131.3020   11.3230 C.3   150  GLU150      0.1163
     66  CD         1.9610  130.6080   10.1810 C.2   150  GLU150      0.3649
     67  OE1        1.3220  129.5670   10.4370 O.co2 150  GLU150     -0.2457
     68  OE2        2.0240  131.0970    9.0310 O.co2 150  GLU150     -0.2457
     69  N          3.5750  135.3100   11.7790 N.am  151  TYR151     -0.1960
     70  CA         2.6840  136.4020   12.1400 C.3   151  TYR151      0.1771
     71  C          1.3010  136.1960   11.5340 C.2   151  TYR151      0.2619
     72  O          1.1700  135.9260   10.3390 O.2   151  TYR151     -0.2715
     73  CB         3.2810  137.7490   11.7170 C.3   151  TYR151      0.0574
     74  CG         2.3860  138.9430   11.9750 C.ar  151  TYR151     -0.0198
     75  CD1        1.8380  139.1760   13.2400 C.ar  151  TYR151     -0.0009
     76  CD2        2.1000  139.8520   10.9570 C.ar  151  TYR151     -0.0009
     77  CE1        1.0180  140.2750   13.4780 C.ar  151  TYR151      0.0417
     78  CE2        1.2870  140.9570   11.1870 C.ar  151  TYR151      0.0417
     79  CZ         0.7490  141.1600   12.4470 C.ar  151  TYR151      0.1957
     80  OH        -0.0590  142.2500   12.6750 O.3   151  TYR151     -0.2866
     81  N          0.2810  136.3080   12.3820 N.am  152  MET152     -0.1977
     82  CA        -1.1110  136.1990   11.9620 C.3   152  MET152      0.1605
     83  C         -1.7210  137.5980   11.8840 C.2   152  MET152      0.2287
     84  O         -2.2150  138.1160   12.8870 O.2   152  MET152     -0.2864
     85  CB        -1.9030  135.3160   12.9330 C.3   152  MET152      0.0413
     86  CG        -1.4300  133.8680   13.0280 C.3   152  MET152      0.0598
     87  SD        -1.9870  132.8270   11.6630 S.3   152  MET152     -0.1393
     88  CE        -0.6570  133.0320   10.4790 C.3   152  MET152      0.0692
     89  N         -8.0520  124.5860   26.4560 N.3   194  ASP194     -0.1239
     90  CA        -8.2400  126.0390   26.5090 C.3   194  ASP194      0.1674
     91  C         -8.7090  126.6160   25.1700 C.2   194  ASP194      0.2266
     92  O         -8.0950  127.5340   24.6210 O.2   194  ASP194     -0.2867
     93  CB        -6.9570  126.7320   26.9890 C.3   194  ASP194      0.1410
     94  CG        -7.2030  128.1430   27.5070 C.2   194  ASP194      0.3668
     95  OD1       -6.2440  128.9430   27.5120 O.co2 194  ASP194     -0.2456
     96  OD2       -8.3440  128.4550   27.9110 O.co2 194  ASP194     -0.2456
     97  N        -10.7390  128.9280   23.0970 N.3   196  LYS196     -0.1245
     98  CA       -11.3630  130.2380   23.2750 C.3   196  LYS196      0.1561
     99  C        -10.9670  131.1920   22.1430 C.2   196  LYS196      0.2260
    100  O         -9.9230  131.0010   21.5140 O.2   196  LYS196     -0.2867
    101  CB       -11.0090  130.8350   24.6480 C.3   196  LYS196      0.0271
    102  CG        -9.5270  131.0780   24.8950 C.3   196  LYS196      0.0035
    103  CD        -9.2960  131.6520   26.2830 C.3   196  LYS196      0.0206
    104  CE        -7.8210  131.9170   26.5320 C.3   196  LYS196      0.1093
    105  NZ        -7.5790  132.4540   27.9010 N.3   196  LYS196     -0.1314
    106  N         -9.5970  133.9960   22.0520 N.3   198  ASP198     -0.1225
    107  CA        -8.2550  134.5640   22.2180 C.3   198  ASP198      0.1805
    108  C         -7.1940  133.7210   21.5140 C.2   198  ASP198      0.2597
    109  O         -6.2190  134.2540   20.9790 O.2   198  ASP198     -0.2718
    110  CB        -7.8980  134.6950   23.7040 C.3   198  ASP198      0.1424
    111  CG        -8.9600  135.4290   24.5060 C.2   198  ASP198      0.3668
    112  OD1      -10.1060  134.9360   24.5810 O.co2 198  ASP198     -0.2456
    113  OD2       -8.6420  136.4940   25.0760 O.co2 198  ASP198     -0.2456
    114  N         -7.3990  132.4060   21.5210 N.am  199  ASN199     -0.1974
    115  CA        -6.4610  131.4550   20.9280 C.3   199  ASN199      0.1688
    116  C         -6.7200  131.1700   19.4470 C.2   199  ASN199      0.2292
    117  O         -5.9860  130.4010   18.8190 O.2   199  ASN199     -0.2864
    118  CB        -6.4590  130.1480   21.7300 C.3   199  ASN199      0.1181
    119  CG        -5.9060  130.3230   23.1350 C.2   199  ASN199      0.2629
    120  OD1       -4.9590  131.0800   23.3570 O.2   199  ASN199     -0.2716
    121  ND2       -6.4900  129.6120   24.0910 N.am  199  ASN199     -0.0877
    122  N         -6.6410  132.5840   15.8410 N.3   201  LEU201     -0.1245
    123  CA        -6.0380  133.6400   15.0310 C.3   201  LEU201      0.1561
    124  C         -6.3230  133.4330   13.5450 C.2   201  LEU201      0.2260
    125  O         -6.5170  132.3020   13.0960 O.2   201  LEU201     -0.2867
    126  CB        -4.5230  133.6920   15.2740 C.3   201  LEU201      0.0270
    127  CG        -3.9000  134.4690   16.4510 C.3   201  LEU201      0.0019
    128  CD1       -3.8520  135.9700   16.1490 C.3   201  LEU201      0.0001
    129  CD2       -4.5780  134.2150   17.8040 C.3   201  LEU201      0.0001
    130  N         -3.5220  129.2630   18.0930 N.3   211  ALA211     -0.1231
    131  CA        -2.2750  129.7830   18.6450 C.3   211  ALA211      0.1694
    132  C         -2.2630  129.5250   20.1440 C.2   211  ALA211      0.2592
    133  O         -3.3250  129.4900   20.7710 O.2   211  ALA211     -0.2718
    134  CB        -2.1500  131.2690   18.3640 C.3   211  ALA211      0.0304
    135  N         -1.0670  129.3550   20.7110 N.am  212  ASP212     -0.1974
    136  CA        -0.8860  129.0560   22.1400 C.3   212  ASP212      0.1709
    137  C         -1.4380  127.6780   22.5140 C.2   212  ASP212      0.2293
    138  O         -2.6280  127.3980   22.3490 O.2   212  ASP212     -0.2864
    139  CB        -1.4960  130.1570   23.0290 C.3   212  ASP212      0.1436
    140  CG        -1.1660  129.9830   24.5110 C.2   212  ASP212      0.3671
    141  OD1       -1.6700  130.7890   25.3210 O.co2 212  ASP212     -0.2456
    142  OD2       -0.4110  129.0550   24.8760 O.co2 212  ASP212     -0.2456
    143  N         -4.9860  144.4070   15.6510 N.3   364  PHE364     -0.1241
    144  CA        -4.5560  144.2590   17.0370 C.3   364  PHE364      0.1605
    145  C         -4.6200  145.6080   17.7440 C.2   364  PHE364      0.2264
    146  O         -4.2240  146.6320   17.1790 O.2   364  PHE364     -0.2867
    147  CB        -3.1310  143.7050   17.1060 C.3   364  PHE364      0.0534
    148  CG        -2.9770  142.3360   16.5060 C.ar  364  PHE364     -0.0203
    149  CD1       -3.2920  141.1990   17.2450 C.ar  364  PHE364     -0.0042
    150  CD2       -2.5050  142.1810   15.2060 C.ar  364  PHE364     -0.0042
    151  CE1       -3.1480  139.9290   16.6960 C.ar  364  PHE364     -0.0003
    152  CE2       -2.3570  140.9160   14.6490 C.ar  364  PHE364     -0.0003
    153  CZ        -2.6780  139.7880   15.3970 C.ar  364  PHE364     -0.0000
@<TRIPOS>BOND
     1    68    66   ar
     2    66    67   ar
     3    66    65    1
     4    72    71    2
     5    88    87    1
     6    64    65    1
     7    64    61    1
     8    76    78   ar
     9    76    74   ar
    10    78    79   ar
    11    71    70    1
    12    71    81   am
    13    87    86    1
    14    73    74    1
    15    73    70    1
    16    69    70    1
    17    69    62   am
    18    83    82    1
    19    83    84    2
    20    61    62    1
    21    61    60    1
    22    82    81    1
    23    82    85    1
    24    74    75   ar
    25    62    63    2
    26    79    80    1
    27    79    77   ar
    28    85    86    1
    29    60    54   am
    30   125   124    2
    31    75    77   ar
    32   124   123    1
    33    55    54    2
    34    54    53    1
    35    46    47    1
    36    46    45    1
    37    46    49    1
    38    47    48    2
    39    31    32    1
    40   152   150   ar
    41   152   153   ar
    42    51    49    1
    43   123   126    1
    44   123   122    1
    45    50    49    1
    46   150   148   ar
    47    53    52    1
    48    53    56    1
    49   126   127    1
    50   153   151   ar
    51   143   144    1
    52    32    35    1
    53    32    33    1
    54    56    57    1
    55   128   127    1
    56   127   129    1
    57   148   147    1
    58   148   149   ar
    59   151   149   ar
    60    33    34    2
    61   144   147    1
    62   144   145    1
    63   146   145    2
    64     8     6    1
    65     7     5    1
    66    57    58    1
    67   130   131    1
    68   134   131    1
    69     6     5    1
    70     5     2    1
    71   131   132    1
    72    58    59    1
    73   117   116    2
    74   116   115    1
    75     2     1    1
    76     2     3    1
    77   132   135   am
    78   132   133    2
    79    29    28    1
    80   135   136    1
    81     4     3    2
    82   115   114    1
    83   115   118    1
    84    36    37    1
    85   109   108    2
    86     3     9   am
    87    26    27    2
    88    26    25    1
    89   108   114   am
    90   108   107    1
    91   100    99    2
    92    28    25    1
    93    28    30    1
    94   118   119    1
    95   106   107    1
    96     9    10    1
    97   136   137    1
    98   136   139    1
    99    99    98    1
   100    25    24    1
   101   107   110    1
   102    37    40    1
   103    37    38    1
   104    40    41    1
   105   138   137    2
   106   139   140    1
   107    97    98    1
   108    10    11    1
   109   119   120    2
   110   119   121   am
   111    39    38    2
   112    98   101    1
   113    42    41    1
   114    42    43    1
   115   110   111    1
   116    12    11    2
   117    11    13   am
   118   111   112   ar
   119   111   113   ar
   120   140   142   ar
   121   140   141   ar
   122    92    91    2
   123   101   102    1
   124    44    43    1
   125   102   103    1
   126    91    90    1
   127    13    14    1
   128   103   104    1
   129    89    90    1
   130    90    93    1
   131   104   105    1
   132    23    21    1
   133    14    17    1
   134    14    15    1
   135    93    94    1
   136    21    22    1
   137    21    20    2
   138    17    18    1
   139    94    95   ar
   140    94    96   ar
   141    20    19    1
   142    16    15    2
   143    19    18    1
