@<TRIPOS>MOLECULE
tmp/2eu0A00.pdb
 151 146 0 0 0
SMALL
GASTEIGER

@<TRIPOS>ATOM
      1  N          9.6240    1.4550    0.8770 N.3    14  SER14      -0.1202
      2  CA         8.9330    1.0930   -0.3540 C.3    14  SER14       0.2020
      3  C          8.0140   -0.1010   -0.1240 C.2    14  SER14       0.2619
      4  O          8.1800   -0.8490    0.8410 O.2    14  SER14      -0.2717
      5  CB         9.9440    0.7700   -1.4550 C.3    14  SER14       0.2103
      6  OG         9.5780    1.3850   -2.6800 O.3    14  SER14      -0.2182
      7  N          7.0440   -0.2740   -1.0130 N.am   15  ARG15      -0.1965
      8  CA         6.0980   -1.3760   -0.9050 C.3    15  ARG15       0.1729
      9  C          6.8220   -2.7170   -0.8960 C.2    15  ARG15       0.2616
     10  O          6.2930   -3.7100   -0.3970 O.2    15  ARG15      -0.2715
     11  CB         5.1000   -1.3350   -2.0640 C.3    15  ARG15       0.0348
     12  CG         5.6150   -0.5910   -3.2830 C.3    15  ARG15       0.0492
     13  CD         5.2850   -1.3320   -4.5690 C.3    15  ARG15       0.2205
     14  NE         6.3910   -1.2930   -5.5220 N.pl3  15  ARG15      -0.0865
     15  CZ         7.2590   -2.2870   -5.6830 C.cat  15  ARG15       0.5346
     16  NH1        7.1490   -3.3900   -4.9570 N.pl3  15  ARG15       0.1354
     17  NH2        8.2380   -2.1770   -6.5700 N.pl3  15  ARG15       0.1354
     18  N          8.0320   -2.7470   -1.4500 N.am   16  ASP16      -0.1971
     19  CA         8.8040   -3.9840   -1.4930 C.3    16  ASP16       0.1709
     20  C          9.0530   -4.4990   -0.0880 C.2    16  ASP16       0.2293
     21  O          8.9320   -5.6980    0.1870 O.2    16  ASP16      -0.2864
     22  CB        10.1420   -3.7430   -2.1920 C.3    16  ASP16       0.1436
     23  CG         9.9840   -3.0200   -3.5150 C.2    16  ASP16       0.3671
     24  OD1        9.7700   -3.6980   -4.5410 O.co2  16  ASP16      -0.2456
     25  OD2       10.0740   -1.7730   -3.5240 O.co2  16  ASP16      -0.2456
     26  N          2.5900    3.6880    1.7570 N.3    34  ARG34      -0.1245
     27  CA         3.8170    4.4580    1.8740 C.3    34  ARG34       0.1563
     28  C          3.9400    5.4850    0.7520 C.2    34  ARG34       0.2260
     29  O          3.3540    5.3270   -0.3190 O.2    34  ARG34      -0.2867
     30  CB         5.0280    3.5220    1.8620 C.3    34  ARG34       0.0307
     31  CG         6.3620    4.2500    1.9240 C.3    34  ARG34       0.0489
     32  CD         6.8870    4.5710    0.5350 C.3    34  ARG34       0.2205
     33  NE         8.1200    5.3510    0.5850 N.pl3  34  ARG34      -0.0865
     34  CZ         9.1640    5.1340   -0.2110 C.cat  34  ARG34       0.5346
     35  NH1        9.1230    4.1660   -1.1160 N.pl3  34  ARG34       0.1354
     36  NH2       10.2490    5.8890   -0.1040 N.pl3  34  ARG34       0.1354
     37  N          5.6570    7.0420   -2.2190 N.3    36  SER36      -0.1202
     38  CA         6.6100    6.6570   -3.2560 C.3    36  SER36       0.2020
     39  C          7.6430    7.7520   -3.5150 C.2    36  SER36       0.2618
     40  O          7.3720    8.9360   -3.3170 O.2    36  SER36      -0.2717
     41  CB         5.8710    6.3270   -4.5530 C.3    36  SER36       0.2103
     42  OG         6.7780    6.1060   -5.6170 O.3    36  SER36      -0.2182
     43  N          8.8250    7.3400   -3.9720 N.am   37  ARG37      -0.1979
     44  CA         9.9090    8.2690   -4.2750 C.3    37  ARG37       0.1597
     45  C          9.3650    9.5100   -4.9640 C.2    37  ARG37       0.2287
     46  O          9.9800   10.5750   -4.9320 O.2    37  ARG37      -0.2864
     47  CB        10.9550    7.5940   -5.1650 C.3    37  ARG37       0.0334
     48  CG        12.2090    7.1730   -4.4150 C.3    37  ARG37       0.0492
     49  CD        12.6080    8.2050   -3.3740 C.3    37  ARG37       0.2205
     50  NE        14.0570    8.2940   -3.2180 N.pl3  37  ARG37      -0.0865
     51  CZ        14.8250    7.2630   -2.8770 C.cat  37  ARG37       0.5346
     52  NH1       14.2830    6.0730   -2.6590 N.pl3  37  ARG37       0.1354
     53  NH2       16.1360    7.4230   -2.7560 N.pl3  37  ARG37       0.1354
     54  N          1.3820    4.9440   -1.7810 N.3    43  THR43      -0.1218
     55  CA         1.4040    3.5560   -2.2160 C.3    43  THR43       0.1862
     56  C          0.9040    2.6380   -1.1130 C.2    43  THR43       0.2287
     57  O          1.4830    2.5820   -0.0290 O.2    43  THR43      -0.2866
     58  CB         2.8170    3.1560   -2.6360 C.3    43  THR43       0.1770
     59  OG1        2.8110    2.5920   -3.9330 O.3    43  THR43      -0.2211
     60  CG2        3.4610    2.1560   -1.6990 C.3    43  THR43       0.0375
     61  N         -0.6700  -11.1310   -2.1950 N.3    58  ILE58      -0.1231
     62  CA        -0.5690   -9.7910   -1.6310 C.3    58  ILE58       0.1692
     63  C         -0.1930   -8.7770   -2.7050 C.2    58  ILE58       0.2592
     64  O          0.6660   -9.0460   -3.5460 O.2    58  ILE58      -0.2718
     65  CB         0.4730   -9.7470   -0.4980 C.3    58  ILE58       0.0266
     66  CG1        1.3580   -8.5070   -0.6320 C.3    58  ILE58       0.0019
     67  CG2        1.3200  -11.0090   -0.5100 C.3    58  ILE58       0.0020
     68  CD1        2.4940   -8.4810    0.3640 C.3    58  ILE58       0.0001
     69  N         -0.8420   -7.6150   -2.6860 N.am   59  LYS59      -0.1966
     70  CA        -0.5600   -6.5840   -3.6790 C.3    59  LYS59       0.1728
     71  C         -0.6410   -5.1760   -3.0910 C.2    59  LYS59       0.2616
     72  O         -1.2910   -4.9390   -2.0720 O.2    59  LYS59      -0.2715
     73  CB        -1.5210   -6.7110   -4.8630 C.3    59  LYS59       0.0311
     74  CG        -2.9760   -6.4700   -4.5000 C.3    59  LYS59       0.0038
     75  CD        -3.5240   -5.2370   -5.1990 C.3    59  LYS59       0.0206
     76  CE        -4.9870   -5.0000   -4.8550 C.3    59  LYS59       0.1093
     77  NZ        -5.3060   -5.3860   -3.4510 N.3    59  LYS59      -0.1314
     78  N          0.0320   -4.2470   -3.7620 N.am   60  HIS60      -0.1959
     79  CA         0.0610   -2.8470   -3.3550 C.3    60  HIS60       0.1787
     80  C         -0.5060   -1.9600   -4.4620 C.2    60  HIS60       0.2620
     81  O         -0.4650   -2.3250   -5.6370 O.2    60  HIS60      -0.2715
     82  CB         1.4950   -2.4230   -3.0380 C.3    60  HIS60       0.0785
     83  CG         2.5090   -3.0270   -3.9590 C.ar   60  HIS60       0.0821
     84  ND1        3.0980   -4.2530   -3.7530 N.ar   60  HIS60      -0.2267
     85  CD2        3.0340   -2.5490   -5.1160 C.ar   60  HIS60       0.1154
     86  CE1        3.9460   -4.4790   -4.7650 C.ar   60  HIS60       0.1986
     87  NE2        3.9440   -3.4750   -5.6210 N.ar   60  HIS60      -0.2212
     88  N         -1.0120   -0.7860   -4.0940 N.am   61  TYR61      -0.1960
     89  CA        -1.5550    0.1440   -5.0820 C.3    61  TYR61       0.1771
     90  C         -1.1880    1.5820   -4.7430 C.2    61  TYR61       0.2619
     91  O         -1.3430    2.0210   -3.6030 O.2    61  TYR61      -0.2715
     92  CB        -3.0790    0.0280   -5.2040 C.3    61  TYR61       0.0574
     93  CG        -3.7200   -0.9320   -4.2330 C.ar   61  TYR61      -0.0198
     94  CD1       -3.3610   -2.2700   -4.2150 C.ar   61  TYR61      -0.0009
     95  CD2       -4.6990   -0.5000   -3.3440 C.ar   61  TYR61      -0.0009
     96  CE1       -3.9570   -3.1550   -3.3380 C.ar   61  TYR61       0.0417
     97  CE2       -5.2960   -1.3750   -2.4630 C.ar   61  TYR61       0.0417
     98  CZ        -4.9240   -2.7030   -2.4640 C.ar   61  TYR61       0.1957
     99  OH        -5.5230   -3.5830   -1.5920 O.3    61  TYR61      -0.2866
    100  N         -0.7170    2.3180   -5.7450 N.am   62  HIS62      -0.1973
    101  CA        -0.3530    3.7130   -5.5520 C.3    62  HIS62       0.1656
    102  C         -1.5940    4.5850   -5.6500 C.2    62  HIS62       0.2291
    103  O         -2.2570    4.6240   -6.6860 O.2    62  HIS62      -0.2864
    104  CB         0.6860    4.1580   -6.5810 C.3    62  HIS62       0.0771
    105  CG         1.6340    5.1860   -6.0450 C.ar   62  HIS62       0.0820
    106  ND1        2.1150    6.2520   -6.7730 N.ar   62  HIS62      -0.2267
    107  CD2        2.1860    5.2980   -4.8110 C.ar   62  HIS62       0.1154
    108  CE1        2.9250    6.9600   -5.9760 C.ar   62  HIS62       0.1986
    109  NE2        3.0010    6.4230   -4.7740 N.ar   62  HIS62      -0.2212
    110  N         -3.8630    7.3420   -6.4740 N.3    64  LYS64      -0.1245
    111  CA        -3.8600    8.4030   -7.4680 C.3    64  LYS64       0.1561
    112  C         -4.6230    9.6190   -6.9540 C.2    64  LYS64       0.2260
    113  O         -5.7620    9.5030   -6.5040 O.2    64  LYS64      -0.2867
    114  CB        -4.4800    7.9050   -8.7750 C.3    64  LYS64       0.0271
    115  CG        -4.1070    6.4730   -9.1190 C.3    64  LYS64       0.0035
    116  CD        -2.8980    6.4190  -10.0380 C.3    64  LYS64       0.0206
    117  CE        -2.8110    5.0850  -10.7620 C.3    64  LYS64       0.1093
    118  NZ        -4.1150    4.6900  -11.3610 N.3    64  LYS64      -0.1314
    119  N         -7.0520    4.6050   -6.2500 N.3    75  VAL75      -0.1231
    120  CA        -6.1940    3.5120   -6.6550 C.3    75  VAL75       0.1692
    121  C         -7.0410    2.5800   -7.4900 C.2    75  VAL75       0.2592
    122  O         -7.1430    1.3770   -7.2450 O.2    75  VAL75      -0.2718
    123  CB        -5.6130    2.7590   -5.4490 C.3    75  VAL75       0.0266
    124  CG1       -4.1120    2.9670   -5.3650 C.3    75  VAL75       0.0020
    125  CG2       -6.3030    3.2160   -4.1730 C.3    75  VAL75       0.0020
    126  N         -7.6660    3.2010   -8.4730 N.am   76  ALA76      -0.1966
    127  CA        -8.5580    2.5490   -9.4070 C.3    76  ALA76       0.1728
    128  C         -9.1480    3.6250  -10.3050 C.2    76  ALA76       0.2616
    129  O         -9.0950    4.8030   -9.9650 O.2    76  ALA76      -0.2715
    130  CB        -9.6350    1.7750   -8.6700 C.3    76  ALA76       0.0334
    131  N         -9.6920    3.2530  -11.4440 N.am   77  GLU77      -0.1977
    132  CA       -10.2460    4.2450  -12.3480 C.3    77  GLU77       0.1602
    133  C        -11.7090    4.5490  -12.0530 C.2    77  GLU77       0.2287
    134  O        -12.5840    4.3600  -12.8970 O.2    77  GLU77      -0.2864
    135  CB       -10.0710    3.8200  -13.8000 C.3    77  GLU77       0.0415
    136  CG        -8.6700    3.3310  -14.1340 C.3    77  GLU77       0.1163
    137  CD        -8.1480    2.3160  -13.1340 C.2    77  GLU77       0.3649
    138  OE1       -7.5800    2.7340  -12.1040 O.co2  77  GLU77      -0.2457
    139  OE2       -8.3090    1.1030  -13.3830 O.co2  77  GLU77      -0.2457
    140  N        -12.0450   -3.7080   -5.9750 N.3    97  GLY97      -0.1210
    141  CA       -11.5510   -4.3630   -7.1710 C.3    97  GLY97       0.1956
    142  C        -10.1060   -4.8010   -7.0410 C.2    97  GLY97       0.2611
    143  O         -9.4910   -5.2310   -8.0170 O.2    97  GLY97      -0.2717
    144  N         -9.5590   -4.6860   -5.8350 N.am   98  LEU98      -0.1979
    145  CA        -8.1760   -5.0670   -5.5840 C.3    98  LEU98       0.1596
    146  C         -8.0930   -6.1950   -4.5600 C.2    98  LEU98       0.2287
    147  O         -8.8860   -6.2520   -3.6220 O.2    98  LEU98      -0.2864
    148  CB        -7.3870   -3.8570   -5.0880 C.3    98  LEU98       0.0297
    149  CG        -8.2290   -2.6170   -4.7860 C.3    98  LEU98       0.0022
    150  CD1       -8.3290   -2.3910   -3.2850 C.3    98  LEU98       0.0001
    151  CD2       -7.6390   -1.3940   -5.4740 C.3    98  LEU98       0.0001
@<TRIPOS>BOND
     1   136   135    1
     2   136   137    1
     3   135   132    1
     4   139   137   ar
     5   137   138   ar
     6   134   133    2
     7   132   133    1
     8   132   131    1
     9   131   128   am
    10   118   117    1
    11   117   116    1
    12   128   129    2
    13   128   127    1
    14   116   115    1
    15   127   130    1
    16   127   126    1
    17   115   114    1
    18   114   111    1
    19   126   121   am
    20   143   142    2
    21   121   122    2
    22   121   120    1
    23   111   112    1
    24   111   110    1
    25   141   142    1
    26   141   140    1
    27   142   144   am
    28   112   113    2
    29   106   105   ar
    30   106   108   ar
    31   103   102    2
    32   120   119    1
    33   120   123    1
    34   104   105    1
    35   104   101    1
    36    17    15    1
    37   105   107   ar
    38   108   109   ar
    39   144   145    1
    40   100   101    1
    41   100    90   am
    42    15    14    2
    43    15    16    1
    44   102   101    1
    45    81    80    2
    46    87    85   ar
    47    87    86   ar
    48    42    41    1
    49   145   148    1
    50   145   146    1
    51    14    13    1
    52   151   149    1
    53   123   124    1
    54   123   125    1
    55    92    89    1
    56    92    93    1
    57    75    76    1
    58    75    74    1
    59    47    48    1
    60    47    44    1
    61    85    83   ar
    62   148   149    1
    63    89    90    1
    64    89    88    1
    65    45    46    2
    66    45    44    1
    67    73    74    1
    68    73    70    1
    69    76    77    1
    70   107   109   ar
    71   149   150    1
    72    86    84   ar
    73    90    91    2
    74    13    12    1
    75   146   147    2
    76    41    38    1
    77    24    23   ar
    78    80    88   am
    79    80    79    1
    80    48    49    1
    81    44    43    1
    82    93    94   ar
    83    93    95   ar
    84    94    96   ar
    85    43    39   am
    86    83    84   ar
    87    83    82    1
    88    59    58    1
    89    78    79    1
    90    78    71   am
    91    70    71    1
    92    70    69    1
    93    64    63    2
    94    25    23   ar
    95    23    22    1
    96    39    40    2
    97    39    38    1
    98    49    50    1
    99    79    82    1
   100    95    97   ar
   101    96    98   ar
   102    12    11    1
   103    38    37    1
   104    50    51    2
   105    71    72    2
   106    51    53    1
   107    51    52    1
   108    63    69   am
   109    63    62    1
   110     6     5    1
   111    58    55    1
   112    58    60    1
   113    98    97   ar
   114    98    99    1
   115    55    54    1
   116    55    56    1
   117    61    62    1
   118    22    19    1
   119    11     8    1
   120    62    65    1
   121    19    18    1
   122    19    20    1
   123     5     2    1
   124    18     9   am
   125    35    34    1
   126    56    57    2
   127     7     8    1
   128     7     3   am
   129     8     9    1
   130     9    10    2
   131    66    65    1
   132    66    68    1
   133    67    65    1
   134     2     3    1
   135     2     1    1
   136    29    28    2
   137    34    36    1
   138    34    33    2
   139     3     4    2
   140    20    21    2
   141    32    33    1
   142    32    31    1
   143    28    27    1
   144    26    27    1
   145    30    27    1
   146    30    31    1
