@<TRIPOS>MOLECULE
tmp/2eu2A00.pdb
 142 137 0 0 0
SMALL
GASTEIGER

@<TRIPOS>ATOM
      1  N         -3.2320   -0.0330    3.6780 N.3    59  ASN59      -0.1240
      2  CA        -2.0680    0.7780    4.1380 C.3    59  ASN59       0.1653
      3  C         -0.7880   -0.0390    4.3110 C.2    59  ASN59       0.2266
      4  O          0.1930    0.4580    4.9220 O.2    59  ASN59      -0.2867
      5  CB        -2.3960    1.5730    5.3940 C.3    59  ASN59       0.1155
      6  CG        -2.7270    0.7970    6.6230 C.2    59  ASN59       0.2627
      7  OD1       -3.2010    1.3450    7.6210 O.2    59  ASN59      -0.2716
      8  ND2       -2.4560   -0.4580    6.6530 N.am   59  ASN59      -0.0877
      9  N         -3.0940   -3.2420    7.3360 N.3    62  ALA62      -0.1245
     10  CA        -4.4880   -3.6750    7.3820 C.3    62  ALA62       0.1562
     11  C         -5.2300   -2.9020    6.2470 C.2    62  ALA62       0.2260
     12  O         -4.5540   -2.2840    5.4060 O.2    62  ALA62      -0.2867
     13  CB        -5.1840   -3.4670    8.7200 C.3    62  ALA62       0.0290
     14  N         -8.3690    0.2110    5.9320 N.3    64  ASN64      -0.1240
     15  CA        -9.2250    1.1340    6.6650 C.3    64  ASN64       0.1653
     16  C        -10.4810    1.5090    5.8320 C.2    64  ASN64       0.2266
     17  O        -10.2950    1.8630    4.6460 O.2    64  ASN64      -0.2867
     18  CB        -8.5140    2.4630    6.9790 C.3    64  ASN64       0.1155
     19  CG        -7.3450    2.3810    7.9460 C.2    64  ASN64       0.2627
     20  OD1       -6.5410    3.4310    7.9510 O.2    64  ASN64      -0.2716
     21  ND2       -7.2340    1.3950    8.6750 N.am   64  ASN64      -0.0877
     22  N        -12.6390    6.0250   11.3280 N.3    89  GLN89      -0.1245
     23  CA       -12.3490    4.8870   10.4500 C.3    89  GLN89       0.1566
     24  C        -12.5930    3.5870   11.2390 C.2    89  GLN89       0.2260
     25  O        -12.6240    3.6090   12.4710 O.2    89  GLN89      -0.2867
     26  CB       -10.9170    4.8560    9.9090 C.3    89  GLN89       0.0367
     27  CG        -9.8220    4.9840   10.9870 C.3    89  GLN89       0.0905
     28  CD        -9.0440    3.7180   11.2850 C.2    89  GLN89       0.2608
     29  OE1       -9.5820    2.6060   11.3130 O.2    89  GLN89      -0.2717
     30  NE2       -7.7730    3.9380   11.6050 N.am   89  GLN89      -0.0878
     31  N        -11.1380   -0.7350   10.9840 N.3    91  HIS91      -0.1241
     32  CA       -10.2540   -1.7250   10.4040 C.3    91  HIS91       0.1621
     33  C        -10.3330   -3.0320   11.2040 C.2    91  HIS91       0.2264
     34  O        -10.9820   -3.0430   12.2690 O.2    91  HIS91      -0.2867
     35  CB        -8.7630   -1.2330   10.3080 C.3    91  HIS91       0.0745
     36  CG        -8.2470   -0.9490   11.7050 C.ar   91  HIS91       0.0817
     37  ND1       -8.3980    0.2850   12.3430 N.ar   91  HIS91      -0.2268
     38  CD2       -7.6090   -1.7640   12.5790 C.ar   91  HIS91       0.1154
     39  CE1       -7.8840    0.1720   13.5690 C.ar   91  HIS91       0.1986
     40  NE2       -7.3780   -1.0670   13.7540 N.ar   91  HIS91      -0.2212
     41  N         -7.9970   -6.8130   12.5250 N.3    93  HIS93      -0.1241
     42  CA        -6.8100   -7.6480   12.7120 C.3    93  HIS93       0.1621
     43  C         -7.2410   -9.1040   12.5830 C.2    93  HIS93       0.2264
     44  O         -8.3160   -9.4600   13.1010 O.2    93  HIS93      -0.2867
     45  CB        -6.1090   -7.4030   14.0720 C.3    93  HIS93       0.0745
     46  CG        -5.8340   -5.9410   14.3340 C.ar   93  HIS93       0.0817
     47  ND1       -6.6310   -4.9150   14.7390 N.ar   93  HIS93      -0.2268
     48  CD2       -4.5990   -5.3620   14.1450 C.ar   93  HIS93       0.1154
     49  CE1       -5.9050   -3.7530   14.8190 C.ar   93  HIS93       0.1986
     50  NE2       -4.6390   -4.0290   14.4680 N.ar   93  HIS93      -0.2212
     51  N        -12.0040   -2.9880   14.9340 N.3   116  HIS116     -0.1241
     52  CA       -11.7560   -1.7330   15.6920 C.3   116  HIS116      0.1621
     53  C        -12.4520   -0.5470   15.0060 C.2   116  HIS116      0.2264
     54  O        -12.1010   -0.1800   13.8740 O.2   116  HIS116     -0.2867
     55  CB       -10.2420   -1.4460   15.7920 C.3   116  HIS116      0.0745
     56  CG        -9.5210   -2.4420   16.6800 C.ar  116  HIS116      0.0817
     57  ND1       -8.1360   -2.6450   16.6690 N.ar  116  HIS116     -0.2268
     58  CD2      -10.0420   -3.2650   17.6290 C.ar  116  HIS116      0.1154
     59  CE1       -7.8570   -3.5700   17.5840 C.ar  116  HIS116      0.1986
     60  NE2       -8.9900   -3.9720   18.1990 N.ar  116  HIS116     -0.2212
     61  N        -12.6980    3.3040   15.3330 N.3   118  VAL118     -0.1245
     62  CA       -11.8410    4.3340   15.9640 C.3   118  VAL118      0.1561
     63  C        -12.5480    5.6950   15.9850 C.2   118  VAL118      0.2260
     64  O        -13.0420    6.1920   14.9500 O.2   118  VAL118     -0.2867
     65  CB       -10.4850    4.4560   15.2030 C.3   118  VAL118      0.0252
     66  CG1       -9.5570    5.5180   15.8020 C.3   118  VAL118      0.0019
     67  CG2       -9.7680    3.1020   15.0990 C.3   118  VAL118      0.0019
     68  N         -8.0450   14.9460   14.9040 N.3   127  PHE127     -0.1241
     69  CA        -7.4960   13.6460   15.3090 C.3   127  PHE127      0.1605
     70  C         -6.0410   13.7760   15.7590 C.2   127  PHE127      0.2264
     71  O         -5.5950   13.1430   16.7450 O.2   127  PHE127     -0.2867
     72  CB        -7.6820   12.6110   14.1620 C.3   127  PHE127      0.0534
     73  CG        -7.0400   11.2640   14.4090 C.ar  127  PHE127     -0.0203
     74  CD1       -7.8130   10.2630   15.0050 C.ar  127  PHE127     -0.0042
     75  CD2       -5.7180   10.9830   14.0830 C.ar  127  PHE127     -0.0042
     76  CE1       -7.2600    9.0320   15.2830 C.ar  127  PHE127     -0.0003
     77  CE2       -5.1690    9.7300   14.3540 C.ar  127  PHE127     -0.0003
     78  CZ        -5.9500    8.7390   14.9310 C.ar  127  PHE127     -0.0000
     79  N         -4.6400   12.5280   19.5440 N.3   131  VAL131     -0.1245
     80  CA        -3.7470   11.4110   19.9200 C.3   131  VAL131      0.1561
     81  C         -2.6200   11.8150   20.8870 C.2   131  VAL131      0.2260
     82  O         -1.9030   10.9360   21.4690 O.2   131  VAL131     -0.2867
     83  CB        -3.1100   10.6910   18.6930 C.3   131  VAL131      0.0252
     84  CG1       -4.1690   10.0650   17.8270 C.3   131  VAL131      0.0019
     85  CG2       -2.1830   11.6130   17.9030 C.3   131  VAL131      0.0019
     86  N        -11.8410    3.4960   21.2240 N.3   139  VAL139     -0.1245
     87  CA       -11.8870    2.4250   20.2110 C.3   139  VAL139      0.1561
     88  C        -12.8980    1.3640   20.7090 C.2   139  VAL139      0.2260
     89  O        -12.7410    0.8480   21.8230 O.2   139  VAL139     -0.2867
     90  CB       -10.4960    1.8470   19.8590 C.3   139  VAL139      0.0252
     91  CG1      -10.6540    0.8060   18.7550 C.3   139  VAL139      0.0019
     92  CG2       -9.5360    2.9630   19.4170 C.3   139  VAL139      0.0019
     93  N         -2.7760    2.8510   21.3690 N.3   194  LEU194     -0.1231
     94  CA        -2.7770    2.3060   20.0090 C.3   194  LEU194      0.1693
     95  C         -2.0220    0.9760   20.0060 C.2   194  LEU194      0.2593
     96  O         -1.0320    0.7890   20.7860 O.2   194  LEU194     -0.2718
     97  CB        -2.0550    3.2540   19.0190 C.3   194  LEU194      0.0284
     98  CG        -2.5740    4.7330   18.9740 C.3   194  LEU194      0.0019
     99  CD1       -1.7170    5.5600   18.0340 C.3   194  LEU194      0.0001
    100  CD2       -4.0180    4.7400   18.5420 C.3   194  LEU194      0.0001
    101  N         -2.4410    0.0180   19.1710 N.am  195  THR195     -0.1939
    102  CA        -1.7670   -1.3060   19.1070 C.3   195  THR195      0.2028
    103  C         -0.7630   -1.3880   17.9770 C.2   195  THR195      0.2643
    104  O         -0.1470   -2.4720   17.7910 O.2   195  THR195     -0.2714
    105  CB        -2.7650   -2.4850   19.0350 C.3   195  THR195      0.1808
    106  OG1       -3.3860   -2.4450   17.7510 O.3   195  THR195     -0.2208
    107  CG2       -3.8360   -2.4630   20.1280 C.3   195  THR195      0.0379
    108  N         -0.5810   -0.3020   17.2080 N.am  196  THR196     -0.1937
    109  CA         0.4750   -0.1920   16.2050 C.3   196  THR196      0.2013
    110  C          1.3220    1.0310   16.5000 C.2   196  THR196      0.2484
    111  O          0.8100    1.9800   17.1260 O.2   196  THR196     -0.2729
    112  CB        -0.1140    0.0190   14.7890 C.3   196  THR196      0.1807
    113  OG1       -0.9310    1.2130   14.7640 O.3   196  THR196     -0.2208
    114  CG2       -0.9730   -1.1610   14.3280 C.3   196  THR196      0.0379
    115  N          2.6010    1.0660   16.0320 N.am  197  PRO197     -0.2715
    116  CA         3.3770    2.3450   16.0740 C.3   197  PRO197      0.1521
    117  C          2.4820    3.5120   15.6010 C.2   197  PRO197      0.2440
    118  O          1.7340    3.3430   14.6390 O.2   197  PRO197     -0.2731
    119  CB         4.5790    2.0240   15.1750 C.3   197  PRO197      0.0310
    120  CG         4.8040    0.5340   15.3520 C.3   197  PRO197      0.0237
    121  CD         3.3980   -0.0290   15.4540 C.3   197  PRO197      0.0939
    122  N          2.4970    4.6890   16.2730 N.am  198  PRO198     -0.2727
    123  CA         3.4530    5.0750   17.3440 C.3   198  PRO198      0.1402
    124  C          3.0750    4.6300   18.7620 C.2   198  PRO198      0.2269
    125  O          3.7810    5.0600   19.7300 O.2   198  PRO198     -0.2865
    126  CB         3.4300    6.6320   17.2120 C.3   198  PRO198      0.0296
    127  CG         2.0240    6.9210   16.7730 C.3   198  PRO198      0.0237
    128  CD         1.6210    5.8240   15.8130 C.3   198  PRO198      0.0939
    129  N        -10.3910    2.0050   25.7490 N.3   205  TRP205     -0.1241
    130  CA       -10.8780    0.7940   25.0550 C.3   205  TRP205      0.1605
    131  C        -12.2650    0.3650   25.5760 C.2   205  TRP205      0.2264
    132  O        -12.4930    0.3150   26.8020 O.2   205  TRP205     -0.2867
    133  CB        -9.8630   -0.3850   25.2590 C.3   205  TRP205      0.0550
    134  CG        -8.7070   -0.2330   24.2810 C.ar  205  TRP205      0.0003
    135  CD1       -7.4620    0.3500   24.4900 C.ar  205  TRP205      0.0946
    136  CD2       -8.7440   -0.6620   22.9290 C.ar  205  TRP205      0.0152
    137  NE1       -6.7180    0.3160   23.3290 N.ar  205  TRP205     -0.2442
    138  CE2       -7.4620   -0.3010   22.3490 C.ar  205  TRP205      0.0810
    139  CE3       -9.7040   -1.3040   22.1170 C.ar  205  TRP205      0.0012
    140  CZ2       -7.1700   -0.5780   21.0100 C.ar  205  TRP205      0.0191
    141  CZ3       -9.3900   -1.5790   20.7930 C.ar  205  TRP205      0.0001
    142  CH2       -8.1350   -1.2200   20.2710 C.ar  205  TRP205      0.0015
@<TRIPOS>BOND
     1     1     2    1
     2     2     3    1
     3     2     5    1
     4     3     4    2
     5    17    16    2
     6     5     6    1
     7    12    11    2
     8    16    15    1
     9    14    15    1
    10    11    10    1
    11     6     8   am
    12     6     7    2
    13    15    18    1
    14    18    19    1
    15     9    10    1
    16    10    13    1
    17    19    20    2
    18    19    21   am
    19    26    23    1
    20    26    27    1
    21    35    32    1
    22    35    36    1
    23    32    31    1
    24    32    33    1
    25    23    24    1
    26    23    22    1
    27    27    28    1
    28    33    34    2
    29    24    25    2
    30    28    29    2
    31    28    30   am
    32    36    37   ar
    33    36    38   ar
    34    37    39   ar
    35    41    42    1
    36    38    40   ar
    37    43    42    1
    38    43    44    2
    39    42    45    1
    40    39    40   ar
    41    54    53    2
    42    45    46    1
    43    75    77   ar
    44    75    73   ar
    45    48    46   ar
    46    48    50   ar
    47    72    73    1
    48    72    69    1
    49   114   112    1
    50    46    47   ar
    51    77    78   ar
    52    73    74   ar
    53    50    49   ar
    54   118   117    2
    55    47    49   ar
    56   113   112    1
    57   112   109    1
    58    68    69    1
    59    78    76   ar
    60    51    52    1
    61    64    63    2
    62    74    76   ar
    63    53    52    1
    64    67    65    1
    65   119   120    1
    66   119   116    1
    67    65    66    1
    68    65    62    1
    69    69    70    1
    70    61    62    1
    71   120   121    1
    72   121   115    1
    73   117   116    1
    74   117   122   am
    75    52    55    1
    76    70    71    2
    77    55    56    1
    78   128   122    1
    79   128   127    1
    80    62    63    1
    81   115   116    1
    82   115   110   am
    83   109   110    1
    84   109   108    1
    85   122   123    1
    86   110   111    2
    87    57    56   ar
    88    57    59   ar
    89    56    58   ar
    90   127   126    1
    91   108   103   am
    92   126   123    1
    93   123   124    1
    94    59    60   ar
    95    58    60   ar
    96   106   105    1
    97   104   103    2
    98    84    83    1
    99    85    83    1
   100   103   102    1
   101    99    98    1
   102   100    98    1
   103    83    80    1
   104    91    90    1
   105   124   125    2
   106    98    97    1
   107    97    94    1
   108   105   102    1
   109   105   107    1
   110   102   101    1
   111   101    95   am
   112    92    90    1
   113    79    80    1
   114    90    87    1
   115    80    81    1
   116    95    94    1
   117    95    96    2
   118    94    93    1
   119    87    88    1
   120    87    86    1
   121   142   141   ar
   122   142   140   ar
   123    88    89    2
   124   141   139   ar
   125    81    82    2
   126   140   138   ar
   127   139   136   ar
   128   138   136   ar
   129   138   137   ar
   130   136   134   ar
   131   137   135   ar
   132   134   135   ar
   133   134   133    1
   134   130   133    1
   135   130   131    1
   136   130   129    1
   137   131   132    2
