@<TRIPOS>MOLECULE
tmp/2eu3A00.pdb
 139 133 0 0 0
SMALL
GASTEIGER

@<TRIPOS>ATOM
      1  N         -3.3290    0.2100    3.7030 N.3    59  ASN59      -0.1240
      2  CA        -2.1930    1.0420    4.1200 C.3    59  ASN59       0.1653
      3  C         -0.9110    0.2520    4.3090 C.2    59  ASN59       0.2266
      4  O          0.0120    0.7420    4.9700 O.2    59  ASN59      -0.2867
      5  CB        -2.5800    1.8030    5.4000 C.3    59  ASN59       0.1155
      6  CG        -2.6750    0.9320    6.6330 C.2    59  ASN59       0.2627
      7  OD1       -2.4830   -0.2800    6.5580 O.2    59  ASN59      -0.2716
      8  ND2       -2.9750    1.5350    7.7800 N.am   59  ASN59      -0.0877
      9  N         -0.6310   -2.2820    6.1660 N.3    61  HIS61      -0.1226
     10  CA        -0.6650   -3.0710    7.4020 C.3    61  HIS61       0.1752
     11  C         -2.0430   -3.6880    7.6120 C.2    61  HIS61       0.2595
     12  O         -2.1710   -4.7630    8.1840 O.2    61  HIS61      -0.2718
     13  CB        -0.3210   -2.2420    8.6450 C.3    61  HIS61       0.0759
     14  CG         0.9800   -1.5240    8.5090 C.ar   61  HIS61       0.0818
     15  ND1        1.0510   -0.1820    8.2200 N.ar   61  HIS61      -0.2268
     16  CD2        2.2470   -1.9650    8.6330 C.ar   61  HIS61       0.1154
     17  CE1        2.3320    0.1710    8.1630 C.ar   61  HIS61       0.1986
     18  NE2        3.0800   -0.8940    8.4130 N.ar   61  HIS61      -0.2212
     19  N         -3.0610   -2.9830    7.1650 N.am   62  ALA62      -0.1980
     20  CA        -4.4490   -3.3890    7.2760 C.3    62  ALA62       0.1597
     21  C         -5.2480   -2.6420    6.1970 C.2    62  ALA62       0.2287
     22  O         -4.5660   -2.0370    5.3590 O.2    62  ALA62      -0.2864
     23  CB        -4.9330   -3.1040    8.6730 C.3    62  ALA62       0.0319
     24  N         -8.2170    0.4730    5.8500 N.3    64  ASN64      -0.1240
     25  CA        -9.0520    1.4140    6.5840 C.3    64  ASN64       0.1653
     26  C        -10.2950    1.8270    5.7910 C.2    64  ASN64       0.2266
     27  O        -10.1660    2.2640    4.6550 O.2    64  ASN64      -0.2867
     28  CB        -8.3080    2.7250    6.8930 C.3    64  ASN64       0.1155
     29  CG        -7.1070    2.5930    7.7910 C.2    64  ASN64       0.2627
     30  OD1       -7.0840    1.5230    8.5710 O.2    64  ASN64      -0.2716
     31  ND2       -6.2110    3.4420    7.7730 N.am   64  ASN64      -0.0877
     32  N        -12.6850    6.2390   11.3280 N.3    89  GLN89      -0.1245
     33  CA       -12.3800    5.0910   10.4680 C.3    89  GLN89       0.1566
     34  C        -12.6510    3.7880   11.2250 C.2    89  GLN89       0.2260
     35  O        -12.7000    3.8210   12.4420 O.2    89  GLN89      -0.2867
     36  CB       -10.9470    5.0500    9.9570 C.3    89  GLN89       0.0367
     37  CG        -9.8600    5.1660   11.0210 C.3    89  GLN89       0.0905
     38  CD        -9.0710    3.8600   11.1250 C.2    89  GLN89       0.2608
     39  OE1       -7.7630    3.9250   10.9660 O.2    89  GLN89      -0.2717
     40  NE2       -9.6890    2.8310   11.3770 N.am   89  GLN89      -0.0878
     41  N        -11.1640   -0.4830   11.0090 N.3    91  HIS91      -0.1241
     42  CA       -10.2370   -1.4100   10.3940 C.3    91  HIS91       0.1621
     43  C        -10.3130   -2.7210   11.1930 C.2    91  HIS91       0.2264
     44  O        -10.9900   -2.7730   12.2180 O.2    91  HIS91      -0.2867
     45  CB        -8.7910   -0.8810   10.3690 C.3    91  HIS91       0.0745
     46  CG        -8.3280   -0.6650   11.7920 C.ar   91  HIS91       0.0817
     47  ND1       -8.5670    0.5220   12.4720 N.ar   91  HIS91      -0.2268
     48  CD2       -7.6440   -1.4530   12.6460 C.ar   91  HIS91       0.1154
     49  CE1       -8.0440    0.4230   13.7000 C.ar   91  HIS91       0.1986
     50  NE2       -7.4810   -0.7650   13.8390 N.ar   91  HIS91      -0.2212
     51  N         -8.0070   -6.4650   12.4860 N.3    93  HIS93      -0.1241
     52  CA        -6.7920   -7.2620   12.6650 C.3    93  HIS93       0.1621
     53  C         -7.1860   -8.7240   12.5040 C.2    93  HIS93       0.2264
     54  O         -8.2570   -9.0730   13.0160 O.2    93  HIS93      -0.2867
     55  CB        -6.1560   -7.0340   14.0280 C.3    93  HIS93       0.0745
     56  CG        -5.8970   -5.5920   14.3460 C.ar   93  HIS93       0.0817
     57  ND1       -4.6380   -5.0550   14.2240 N.ar   93  HIS93      -0.2268
     58  CD2       -6.7130   -4.5910   14.7680 C.ar   93  HIS93       0.1154
     59  CE1       -4.6920   -3.7500   14.5780 C.ar   93  HIS93       0.1986
     60  NE2       -5.9380   -3.4550   14.8980 N.ar   93  HIS93      -0.2212
     61  N        -11.9250   -2.6880   14.8670 N.3   116  HIS116     -0.1297
     62  CA       -11.7290   -1.4920   15.6870 C.3   116  HIS116      0.1306
     63  C        -12.4380   -0.3100   15.0320 C.3   116  HIS116      0.2013
     64  O        -12.0770   -0.0680   13.8690 O.3   116  HIS116     -0.2188
     65  CB       -10.2280   -1.1930   15.8090 C.3   116  HIS116      0.0691
     66  CG        -9.5450   -2.1880   16.7190 C.ar  116  HIS116      0.0814
     67  ND1       -8.1830   -2.3970   16.7440 N.ar  116  HIS116     -0.2268
     68  CD2      -10.0780   -3.0030   17.6480 C.ar  116  HIS116      0.1154
     69  CE1       -7.9060   -3.3170   17.6650 C.ar  116  HIS116      0.1986
     70  NE2       -9.0540   -3.7090   18.2340 N.ar  116  HIS116     -0.2212
     71  N        -12.6660    3.5890   15.3240 N.3   118  VAL118     -0.1245
     72  CA       -11.8020    4.5970   15.9510 C.3   118  VAL118      0.1561
     73  C        -12.5240    5.9470   15.9930 C.2   118  VAL118      0.2260
     74  O        -13.0260    6.3620   14.9340 O.2   118  VAL118     -0.2867
     75  CB       -10.5070    4.7410   15.1410 C.3   118  VAL118      0.0252
     76  CG1       -9.5830    5.7870   15.7630 C.3   118  VAL118      0.0019
     77  CG2       -9.7760    3.4070   14.9760 C.3   118  VAL118      0.0019
     78  N         -8.1790   15.0110   14.8330 N.3   127  PHE127     -0.1241
     79  CA        -7.5790   13.7380   15.1870 C.3   127  PHE127      0.1605
     80  C         -6.1270   13.8920   15.5970 C.2   127  PHE127      0.2264
     81  O         -5.6980   13.2620   16.5640 O.2   127  PHE127     -0.2867
     82  CB        -7.7450   12.7610   13.9970 C.3   127  PHE127      0.0534
     83  CG        -7.1670   11.3900   14.3170 C.ar  127  PHE127     -0.0203
     84  CD1       -5.8730   11.0700   13.9330 C.ar  127  PHE127     -0.0042
     85  CD2       -7.9640   10.4670   14.9980 C.ar  127  PHE127     -0.0042
     86  CE1       -5.3350    9.8270   14.2420 C.ar  127  PHE127     -0.0003
     87  CE2       -7.4000    9.2370   15.3030 C.ar  127  PHE127     -0.0003
     88  CZ        -6.1160    8.9100   14.9260 C.ar  127  PHE127     -0.0000
     89  N         -8.8150    9.5150   22.2750 N.3   137  LEU137     -0.1245
     90  CA        -9.4670    8.5710   21.3720 C.3   137  LEU137      0.1561
     91  C        -10.3350    7.5890   22.1450 C.2   137  LEU137      0.2260
     92  O        -10.0630    7.3150   23.3110 O.2   137  LEU137     -0.2867
     93  CB        -8.4300    7.7560   20.6140 C.3   137  LEU137      0.0270
     94  CG        -7.5260    8.4540   19.5990 C.3   137  LEU137      0.0019
     95  CD1       -6.8920    7.3770   18.6970 C.3   137  LEU137      0.0001
     96  CD2       -8.2110    9.4620   18.7220 C.3   137  LEU137      0.0001
     97  N        -11.7710    3.7300   21.1880 N.3   139  VAL139     -0.1245
     98  CA       -11.8410    2.7070   20.1440 C.3   139  VAL139      0.1561
     99  C        -12.8050    1.6310   20.6450 C.2   139  VAL139      0.2260
    100  O        -12.6340    1.1390   21.7510 O.2   139  VAL139     -0.2867
    101  CB       -10.4750    2.1240   19.8040 C.3   139  VAL139      0.0252
    102  CG1      -10.6170    1.0990   18.6800 C.3   139  VAL139      0.0019
    103  CG2       -9.5340    3.2500   19.3790 C.3   139  VAL139      0.0019
    104  N         -2.7730    3.1170   21.2960 N.3   194  LEU194     -0.1231
    105  CA        -2.8510    2.5740   19.9460 C.3   194  LEU194      0.1693
    106  C         -2.0930    1.2410   19.9440 C.2   194  LEU194      0.2593
    107  O         -1.0980    1.0720   20.6810 O.2   194  LEU194     -0.2718
    108  CB        -2.1990    3.4810   18.9110 C.3   194  LEU194      0.0284
    109  CG        -2.5520    4.9660   18.9310 C.3   194  LEU194      0.0019
    110  CD1       -1.6140    5.7280   17.9850 C.3   194  LEU194      0.0001
    111  CD2       -3.9990    5.1570   18.5440 C.3   194  LEU194      0.0001
    112  N         -2.5200    0.2900   19.1280 N.am  195  THR195     -0.1939
    113  CA        -1.8420   -1.0130   19.1310 C.3   195  THR195      0.2028
    114  C         -0.8510   -1.1060   17.9820 C.2   195  THR195      0.2642
    115  O         -0.2490   -2.1560   17.8050 O.2   195  THR195     -0.2714
    116  CB        -2.8200   -2.2060   19.0390 C.3   195  THR195      0.1808
    117  OG1       -3.4460   -2.2060   17.7530 O.3   195  THR195     -0.2208
    118  CG2       -3.9150   -2.1310   20.1130 C.3   195  THR195      0.0379
    119  N         -0.6950   -0.0160   17.2290 N.am  196  THR196     -0.1950
    120  CA         0.3350    0.0630   16.2060 C.3   196  THR196      0.1897
    121  C          1.2110    1.2900   16.5030 C.2   196  THR196      0.2313
    122  O          0.7170    2.2040   17.1640 O.2   196  THR196     -0.2863
    123  CB        -0.1930    0.2150   14.7820 C.3   196  THR196      0.1794
    124  OG1       -1.0220    1.3860   14.7690 O.3   196  THR196     -0.2208
    125  CG2       -1.0470   -0.9690   14.3750 C.3   196  THR196      0.0378
    126  N        -10.3240    2.2580   25.6990 N.3   205  TRP205     -0.1241
    127  CA       -10.8030    1.0770   25.0030 C.3   205  TRP205      0.1605
    128  C        -12.1620    0.6330   25.5410 C.2   205  TRP205      0.2264
    129  O        -12.3700    0.5490   26.7580 O.2   205  TRP205     -0.2867
    130  CB        -9.7900   -0.0810   25.1720 C.3   205  TRP205      0.0550
    131  CG        -8.6450    0.0980   24.2230 C.ar  205  TRP205      0.0003
    132  CD1       -7.4220    0.6650   24.4420 C.ar  205  TRP205      0.0946
    133  CD2       -8.6670   -0.3280   22.8530 C.ar  205  TRP205      0.0152
    134  NE1       -6.6850    0.6260   23.2770 N.ar  205  TRP205     -0.2442
    135  CE2       -7.4260    0.0140   22.2930 C.ar  205  TRP205      0.0810
    136  CE3       -9.6510   -0.9720   22.0700 C.ar  205  TRP205      0.0012
    137  CZ2       -7.1070   -0.2620   20.9600 C.ar  205  TRP205      0.0191
    138  CZ3       -9.3330   -1.2410   20.7480 C.ar  205  TRP205      0.0001
    139  CH2       -8.0790   -0.8880   20.2080 C.ar  205  TRP205      0.0015
@<TRIPOS>BOND
     1     1     2    1
     2     2     3    1
     3     2     5    1
     4     3     4    2
     5    27    26    2
     6    22    21    2
     7     5     6    1
     8    26    25    1
     9    24    25    1
    10     9    10    1
    11    21    20    1
    12     7     6    2
    13    25    28    1
    14     6     8   am
    15    28    29    1
    16    19    20    1
    17    19    11   am
    18    20    23    1
    19    10    11    1
    20    10    13    1
    21    11    12    2
    22    31    29   am
    23    29    30    2
    24    17    15   ar
    25    17    18   ar
    26    15    14   ar
    27    18    16   ar
    28    14    16   ar
    29    14    13    1
    30    36    33    1
    31    36    37    1
    32    45    42    1
    33    45    46    1
    34    42    41    1
    35    42    43    1
    36    33    34    1
    37    33    32    1
    38    39    38    2
    39    37    38    1
    40    38    40   am
    41    43    44    2
    42    34    35    2
    43    46    47   ar
    44    46    48   ar
    45    47    49   ar
    46    51    52    1
    47    53    52    1
    48    53    54    2
    49    48    50   ar
    50    52    55    1
    51    49    50   ar
    52    64    63    1
    53    84    86   ar
    54    84    83   ar
    55    82    83    1
    56    82    79    1
    57    55    56    1
    58    57    56   ar
    59    57    59   ar
    60    86    88   ar
    61    83    85   ar
    62    56    58   ar
    63   125   123    1
    64    59    60   ar
    65    58    60   ar
    66   124   123    1
    67   123   120    1
    68    78    79    1
    69    61    62    1
    70    88    87   ar
    71    74    73    2
    72    77    75    1
    73    85    87   ar
    74    63    62    1
    75    75    76    1
    76    75    72    1
    77    79    80    1
    78    71    72    1
    79    80    81    2
    80    62    65    1
    81    65    66    1
    82    72    73    1
    83   120   121    1
    84   120   119    1
    85   121   122    2
    86    66    67   ar
    87    66    68   ar
    88    67    69   ar
    89   119   114   am
    90    68    70   ar
    91    69    70   ar
    92   117   116    1
    93   115   114    2
    94   114   113    1
    95   110   109    1
    96   111   109    1
    97   102   101    1
    98    95    94    1
    99    96    94    1
   100   108   109    1
   101   108   105    1
   102   116   113    1
   103   116   118    1
   104   112   113    1
   105   112   106   am
   106   103   101    1
   107    94    93    1
   108   101    98    1
   109   106   105    1
   110   106   107    2
   111   105   104    1
   112    98    99    1
   113    98    97    1
   114   139   138   ar
   115   139   137   ar
   116    93    90    1
   117    99   100    2
   118   138   136   ar
   119   137   135   ar
   120    90    91    1
   121    90    89    1
   122   136   133   ar
   123    91    92    2
   124   135   133   ar
   125   135   134   ar
   126   133   131   ar
   127   134   132   ar
   128   131   132   ar
   129   131   130    1
   130   127   130    1
   131   127   128    1
   132   127   126    1
   133   128   129    2
