@<TRIPOS>MOLECULE
tmp/2euaB00.pdb
 112 105 0 0 0
SMALL
GASTEIGER

@<TRIPOS>ATOM
      1  N         51.5580   41.1220   30.5140 N.3    56  GLN56      -0.1231
      2  CA        50.2820   41.8000   30.7480 C.3    56  GLN56       0.1698
      3  C         50.2020   42.4790   32.1200 C.2    56  GLN56       0.2592
      4  O         50.9050   42.0780   33.0490 O.2    56  GLN56      -0.2718
      5  CB        49.0450   41.0120   30.2620 C.3    56  GLN56       0.0381
      6  CG        48.1880   40.2730   31.1980 C.3    56  GLN56       0.0905
      7  CD        47.2200   41.1410   32.0060 C.2    56  GLN56       0.2608
      8  OE1       46.3620   41.8780   31.4830 O.2    56  GLN56      -0.2717
      9  NE2       47.3470   41.0250   33.2950 N.am   56  GLN56      -0.0878
     10  N         49.4440   43.5640   32.1940 N.am   57  ARG57      -0.1966
     11  CA        49.2250   44.3590   33.4340 C.3    57  ARG57       0.1729
     12  C         49.3420   43.6480   34.8000 C.2    57  ARG57       0.2616
     13  O         49.9930   44.1380   35.6870 O.2    57  ARG57      -0.2715
     14  CB        47.8100   44.9520   33.4000 C.3    57  ARG57       0.0348
     15  CG        47.7950   46.3320   33.0070 C.3    57  ARG57       0.0492
     16  CD        46.4100   46.9730   33.1010 C.3    57  ARG57       0.2205
     17  NE        45.2220   46.1670   32.7940 N.pl3  57  ARG57      -0.0865
     18  CZ        44.0950   46.7290   32.3630 C.cat  57  ARG57       0.5346
     19  NH1       43.0100   46.0040   32.1410 N.pl3  57  ARG57       0.1354
     20  NH2       44.0650   48.0390   32.1530 N.pl3  57  ARG57       0.1354
     21  N         48.6290   42.5380   34.9690 N.am   58  ASN58      -0.1972
     22  CA        48.5650   41.8440   36.2730 C.3    58  ASN58       0.1688
     23  C         49.8890   41.2470   36.7060 C.2    58  ASN58       0.2292
     24  O         50.0890   41.0370   37.8900 O.2    58  ASN58      -0.2864
     25  CB        47.4360   40.8050   36.3180 C.3    58  ASN58       0.1181
     26  CG        46.0960   41.4050   35.9070 C.2    58  ASN58       0.2629
     27  OD1       45.9730   42.6230   35.7720 O.2    58  ASN58      -0.2716
     28  ND2       45.1040   40.5620   35.6610 N.am   58  ASN58      -0.0877
     29  N         44.7440   49.3050   28.7520 N.3   240  ARG240     -0.1245
     30  CA        44.3480   48.2620   27.8020 C.3   240  ARG240      0.1563
     31  C         43.7060   48.8490   26.5470 C.2   240  ARG240      0.2260
     32  O         42.8130   49.6710   26.6550 O.2   240  ARG240     -0.2867
     33  CB        43.3380   47.3260   28.4600 C.3   240  ARG240      0.0307
     34  CG        42.6340   46.4180   27.4910 C.3   240  ARG240      0.0489
     35  CD        42.7470   45.0340   28.0190 C.3   240  ARG240      0.2205
     36  NE        41.7220   44.8110   29.0130 N.pl3 240  ARG240     -0.0865
     37  CZ        41.6940   43.8170   29.8850 C.cat 240  ARG240      0.5346
     38  NH1       42.6590   42.9200   29.9430 N.pl3 240  ARG240      0.1354
     39  NH2       40.6670   43.7400   30.7070 N.pl3 240  ARG240      0.1354
     40  N         40.9430   43.3310   24.9410 N.3   243  ARG243     -0.1245
     41  CA        41.2850   41.9430   25.1680 C.3   243  ARG243      0.1563
     42  C         40.1140   41.1490   24.6400 C.2   243  ARG243      0.2260
     43  O         38.9370   41.5440   24.8170 O.2   243  ARG243     -0.2867
     44  CB        41.5460   41.7120   26.6570 C.3   243  ARG243      0.0307
     45  CG        42.0410   40.3290   27.0550 C.3   243  ARG243      0.0489
     46  CD        40.9410   39.6750   27.8150 C.3   243  ARG243      0.2205
     47  NE        41.4090   39.1460   29.0740 N.pl3 243  ARG243     -0.0865
     48  CZ        40.6330   38.6400   30.0320 C.cat 243  ARG243      0.5346
     49  NH1       39.2870   38.5920   29.9230 N.pl3 243  ARG243      0.1354
     50  NH2       41.2310   38.1870   31.1270 N.pl3 243  ARG243      0.1354
     51  N         38.5920   37.2100   24.3290 N.3   245  ARG245     -0.1245
     52  CA        38.6420   35.7820   24.5710 C.3   245  ARG245      0.1563
     53  C         37.4200   35.2450   23.8380 C.2   245  ARG245      0.2260
     54  O         36.2800   35.5530   24.2130 O.2   245  ARG245     -0.2867
     55  CB        38.6450   35.4460   26.0800 C.3   245  ARG245      0.0307
     56  CG        39.6900   36.1880   26.9350 C.3   245  ARG245      0.0489
     57  CD        41.1000   35.6780   26.7410 C.3   245  ARG245      0.2205
     58  NE        41.7070   35.3160   28.0180 N.pl3 245  ARG245     -0.0865
     59  CZ        42.8260   35.8290   28.5300 C.cat 245  ARG245      0.5346
     60  NH1       43.5230   36.7560   27.8930 N.pl3 245  ARG245      0.1354
     61  NH2       43.2580   35.3900   29.6960 N.pl3 245  ARG245      0.1354
     62  N         36.7840   43.0150   26.2200 N.3   250  ARG250     -0.1245
     63  CA        36.9440   44.0270   27.2680 C.3   250  ARG250      0.1563
     64  C         37.8360   45.1690   26.7680 C.2   250  ARG250      0.2260
     65  O         38.8850   44.9060   26.1620 O.2   250  ARG250     -0.2867
     66  CB        37.5810   43.4160   28.5120 C.3   250  ARG250      0.0307
     67  CG        36.7290   42.4140   29.2000 C.3   250  ARG250      0.0489
     68  CD        37.4680   41.8220   30.3840 C.3   250  ARG250      0.2205
     69  NE        36.7880   40.6270   30.8830 N.pl3 250  ARG250     -0.0865
     70  CZ        36.9400   40.1110   32.1070 C.cat 250  ARG250      0.5346
     71  NH1       37.7620   40.6630   32.9940 N.pl3 250  ARG250      0.1354
     72  NH2       36.2640   39.0240   32.4460 N.pl3 250  ARG250      0.1354
     73  N         38.8360   55.2590   35.7600 N.3   319  ARG319     -0.1245
     74  CA        38.6760   54.1740   34.7940 C.3   319  ARG319      0.1563
     75  C         37.2860   53.5610   34.8260 C.2   319  ARG319      0.2260
     76  O         36.7040   53.3410   35.8810 O.2   319  ARG319     -0.2867
     77  CB        39.6990   53.0540   34.9930 C.3   319  ARG319      0.0307
     78  CG        39.5630   51.9420   33.9200 C.3   319  ARG319      0.0489
     79  CD        40.6710   50.9090   34.0240 C.3   319  ARG319      0.2205
     80  NE        40.4690   50.0420   35.1830 N.pl3 319  ARG319     -0.0865
     81  CZ        41.3310   49.1280   35.6240 C.cat 319  ARG319      0.5346
     82  NH1       42.5020   48.9420   35.0370 N.pl3 319  ARG319      0.1354
     83  NH2       41.0150   48.4020   36.6840 N.pl3 319  ARG319      0.1354
     84  N         35.6860   50.3190   33.0210 N.3   321  CYS321     -0.1235
     85  CA        35.8330   49.1510   32.1610 C.3   321  CYS321      0.1677
     86  C         34.5770   48.9360   31.3350 C.2   321  CYS321      0.2270
     87  O         33.4740   49.2080   31.8120 O.2   321  CYS321     -0.2867
     88  CB        36.1560   47.9140   32.9850 C.3   321  CYS321      0.0956
     89  SG        37.8200   48.0040   33.6370 S.3   321  CYS321     -0.0801
     90  N         32.7070   45.9470   28.9420 N.3   323  TRP323     -0.1241
     91  CA        32.6530   44.5300   28.5750 C.3   323  TRP323      0.1605
     92  C         31.5090   44.2760   27.6070 C.2   323  TRP323      0.2264
     93  O         30.4150   44.8340   27.7620 O.2   323  TRP323     -0.2867
     94  CB        32.4180   43.6610   29.8030 C.3   323  TRP323      0.0550
     95  CG        33.5330   43.6370   30.8080 C.ar  323  TRP323      0.0003
     96  CD1       34.6530   44.4320   30.8430 C.ar  323  TRP323      0.0946
     97  CD2       33.6030   42.8050   31.9620 C.ar  323  TRP323      0.0152
     98  NE1       35.4330   44.1100   31.9320 N.ar  323  TRP323     -0.2442
     99  CE2       34.8090   43.1150   32.6350 C.ar  323  TRP323      0.0810
    100  CE3       32.7650   41.8040   32.4890 C.ar  323  TRP323      0.0012
    101  CZ2       35.2000   42.4630   33.8190 C.ar  323  TRP323      0.0191
    102  CZ3       33.1520   41.1530   33.6700 C.ar  323  TRP323      0.0001
    103  CH2       34.3620   41.4880   34.3230 C.ar  323  TRP323      0.0015
    104  N         45.2610   40.1340   23.0210 N.3   380  GLU380     -0.1245
    105  CA        45.2430   41.2860   23.9150 C.3   380  GLU380      0.1567
    106  C         46.2750   42.2790   23.4360 C.2   380  GLU380      0.2260
    107  O         47.3760   41.8820   23.1080 O.2   380  GLU380     -0.2867
    108  CB        45.5410   40.8820   25.3670 C.3   380  GLU380      0.0388
    109  CG        45.3610   42.0290   26.3700 C.3   380  GLU380      0.1160
    110  CD        45.1850   41.5640   27.8030 C.2   380  GLU380      0.3649
    111  OE1       45.2700   40.3340   28.0540 O.co2 380  GLU380     -0.2457
    112  OE2       44.9750   42.4390   28.6780 O.co2 380  GLU380     -0.2457
@<TRIPOS>BOND
     1   104   105    1
     2   107   106    2
     3   106   105    1
     4    53    54    2
     5    53    52    1
     6   105   108    1
     7    51    52    1
     8    52    55    1
     9    42    43    2
    10    42    41    1
    11    40    41    1
    12    41    44    1
    13   108   109    1
    14    55    56    1
    15    65    64    2
    16    62    63    1
    17   109   110    1
    18    31    32    2
    19    31    30    1
    20    44    45    1
    21    57    56    1
    22    57    58    1
    23    64    63    1
    24    45    46    1
    25    63    66    1
    26    34    35    1
    27    34    33    1
    28    92    93    2
    29    92    91    1
    30    30    33    1
    31    30    29    1
    32   110   111   ar
    33   110   112   ar
    34    46    47    1
    35    60    59    1
    36    58    59    2
    37    35    36    1
    38    66    67    1
    39    59    61    1
    40    91    90    1
    41    91    94    1
    42    36    37    2
    43    47    48    2
    44    67    68    1
    45    94    95    1
    46    37    38    1
    47    37    39    1
    48    49    48    1
    49    48    50    1
    50     5     2    1
    51     5     6    1
    52    68    69    1
    53     1     2    1
    54     2     3    1
    55    95    96   ar
    56    95    97   ar
    57    96    98   ar
    58    69    70    2
    59     6     7    1
    60    86    87    2
    61    86    85    1
    62     8     7    2
    63    98    99   ar
    64    97   100   ar
    65    97    99   ar
    66     7     9   am
    67    70    72    1
    68    70    71    1
    69     3    10   am
    70     3     4    2
    71    19    18    1
    72    20    18    1
    73    85    88    1
    74    85    84    1
    75    10    11    1
    76    18    17    2
    77   100   102   ar
    78    99   101   ar
    79    17    16    1
    80    88    89    1
    81    15    16    1
    82    15    14    1
    83    14    11    1
    84    11    12    1
    85   102   103   ar
    86   101   103   ar
    87    78    79    1
    88    78    77    1
    89    79    80    1
    90    74    75    1
    91    74    77    1
    92    74    73    1
    93    12    21   am
    94    12    13    2
    95    75    76    2
    96    21    22    1
    97    82    81    1
    98    80    81    2
    99    81    83    1
   100    28    26   am
   101    27    26    2
   102    26    25    1
   103    22    25    1
   104    22    23    1
   105    23    24    2
