@<TRIPOS>MOLECULE
tmp/2eudA01.pdb
 170 163 0 0 0
SMALL
GASTEIGER

@<TRIPOS>ATOM
      1  N         30.0820   64.3020   14.8260 N.3    66  TYR66      -0.1241
      2  CA        30.5170   64.0990   16.2040 C.3    66  TYR66       0.1605
      3  C         31.1130   65.2760   16.9560 C.2    66  TYR66       0.2264
      4  O         30.6960   65.5660   18.0800 O.2    66  TYR66      -0.2867
      5  CB        31.4720   62.9060   16.2620 C.3    66  TYR66       0.0534
      6  CG        30.8140   61.6220   15.8150 C.ar   66  TYR66      -0.0201
      7  CD1       30.4520   61.4310   14.4810 C.ar   66  TYR66      -0.0009
      8  CD2       30.5100   60.6170   16.7290 C.ar   66  TYR66      -0.0009
      9  CE1       29.8000   60.2710   14.0710 C.ar   66  TYR66       0.0417
     10  CE2       29.8590   59.4550   16.3300 C.ar   66  TYR66       0.0417
     11  CZ        29.5080   59.2900   15.0000 C.ar   66  TYR66       0.1957
     12  OH        28.8640   58.1420   14.6000 O.3    66  TYR66      -0.2866
     13  N         30.0230   53.6070   21.7140 N.3   112  ALA112     -0.1231
     14  CA        28.9890   53.7620   20.6980 C.3   112  ALA112      0.1694
     15  C         28.7200   55.2400   20.4160 C.2   112  ALA112      0.2593
     16  O         29.0460   56.1010   21.2320 O.2   112  ALA112     -0.2718
     17  CB        27.7070   53.0590   21.1430 C.3   112  ALA112      0.0304
     18  N         28.1180   55.5280   19.2640 N.am  113  SER113     -0.1939
     19  CA        27.8230   56.9080   18.8730 C.3   113  SER113      0.2040
     20  C         27.1080   57.7500   19.9340 C.2   113  SER113      0.2485
     21  O         27.5190   58.8690   20.2150 O.2   113  SER113     -0.2729
     22  CB        27.0100   56.9260   17.5740 C.3   113  SER113      0.2129
     23  OG        27.7320   56.3030   16.5210 O.3   113  SER113     -0.2179
     24  N         26.0250   57.2300   20.5290 N.am  114  PRO114     -0.2726
     25  CA        25.3150   58.0100   21.5460 C.3   114  PRO114      0.1402
     26  C         26.2460   58.5280   22.6340 C.2   114  PRO114      0.2269
     27  O         26.0640   59.6290   23.1570 O.2   114  PRO114     -0.2865
     28  CB        24.2910   57.0170   22.0830 C.3   114  PRO114      0.0296
     29  CG        23.9590   56.2220   20.8630 C.3   114  PRO114      0.0237
     30  CD        25.3350   55.9530   20.2810 C.3   114  PRO114      0.0939
     31  N         28.5190   61.3330   21.2720 N.3   117  PHE117     -0.1241
     32  CA        27.7010   62.5340   21.0900 C.3   117  PHE117      0.1605
     33  C         27.5200   63.3340   22.3720 C.2   117  PHE117      0.2264
     34  O         27.7590   64.5380   22.4090 O.2   117  PHE117     -0.2867
     35  CB        26.2740   62.1810   20.6220 C.3   117  PHE117      0.0534
     36  CG        26.1910   61.5500   19.2600 C.ar  117  PHE117     -0.0203
     37  CD1       25.1920   60.6160   18.9880 C.ar  117  PHE117     -0.0042
     38  CD2       27.0820   61.8850   18.2530 C.ar  117  PHE117     -0.0042
     39  CE1       25.0810   60.0210   17.7350 C.ar  117  PHE117     -0.0003
     40  CE2       26.9800   61.2910   16.9870 C.ar  117  PHE117     -0.0003
     41  CZ        25.9760   60.3580   16.7310 C.ar  117  PHE117     -0.0000
     42  N         22.6160   53.0230   23.2180 N.3   128  SER128     -0.1202
     43  CA        22.2900   52.8230   21.8010 C.3   128  SER128      0.2020
     44  C         20.8950   52.3320   21.3990 C.2   128  SER128      0.2619
     45  O         20.4460   52.6010   20.2830 O.2   128  SER128     -0.2717
     46  CB        23.3330   51.9040   21.1610 C.3   128  SER128      0.2103
     47  OG        24.6090   52.5180   21.1540 O.3   128  SER128     -0.2182
     48  N         20.2180   51.5970   22.2710 N.am  129  CYS129     -0.1969
     49  CA        18.8780   51.1210   21.9510 C.3   129  CYS129      0.1712
     50  C         18.1180   50.7800   23.2280 C.2   129  CYS129      0.2296
     51  O         18.6950   50.6750   24.3170 O.2   129  CYS129     -0.2864
     52  CB        18.9000   49.8540   21.0690 C.3   129  CYS129      0.0983
     53  SG        19.8870   49.8390   19.5520 S.3   129  CYS129     -0.0798
     54  N         18.8710   60.1910   21.4400 N.3   156  ALA156     -0.1231
     55  CA        19.5550   59.1510   20.6760 C.3   156  ALA156      0.1694
     56  C         19.1190   57.7380   21.0590 C.2   156  ALA156      0.2593
     57  O         18.6660   57.4970   22.1800 O.2   156  ALA156     -0.2718
     58  CB        21.0740   59.2860   20.8540 C.3   156  ALA156      0.0304
     59  N         19.2550   56.8080   20.1190 N.am  157  GLY157     -0.1942
     60  CA        18.8910   55.4310   20.4020 C.3   157  GLY157      0.2014
     61  C         17.7880   54.8230   19.5580 C.2   157  GLY157      0.2639
     62  O         16.8440   55.5010   19.1370 O.2   157  GLY157     -0.2714
     63  N         17.9170   53.5230   19.3170 N.am  158  GLY158     -0.1954
     64  CA        16.9300   52.8100   18.5370 C.3   158  GLY158      0.1869
     65  C         15.9670   52.0880   19.4560 C.2   158  GLY158      0.2309
     66  O         16.2300   51.9180   20.6500 O.2   158  GLY158     -0.2863
     67  N         20.5800   64.1860   16.8800 N.3   202  ASN202     -0.1225
     68  CA        21.4190   63.0230   17.1070 C.3   202  ASN202      0.1785
     69  C         20.7020   61.8100   16.5060 C.2   202  ASN202      0.2597
     70  O         21.3280   60.9010   15.9490 O.2   202  ASN202     -0.2718
     71  CB        21.5740   62.8450   18.6220 C.3   202  ASN202      0.1169
     72  CG        22.4690   61.6870   18.9970 C.2   202  ASN202      0.2627
     73  OD1       22.3600   60.5870   18.4470 O.2   202  ASN202     -0.2716
     74  ND2       23.3520   61.9220   19.9620 N.am  202  ASN202     -0.0877
     75  N         19.3740   61.8370   16.6050 N.am  203  LYS203     -0.1966
     76  CA        18.5110   60.7500   16.1490 C.3   203  LYS203      0.1728
     77  C         18.4490   60.4150   14.6610 C.2   203  LYS203      0.2616
     78  O         18.5640   61.2850   13.7970 O.2   203  LYS203     -0.2715
     79  CB        17.0820   60.9840   16.6500 C.3   203  LYS203      0.0311
     80  CG        16.2100   59.7500   16.5380 C.3   203  LYS203      0.0038
     81  CD        14.8050   60.0020   17.0180 C.3   203  LYS203      0.0206
     82  CE        14.0640   58.6870   17.1870 C.3   203  LYS203      0.1093
     83  NZ        14.0130   57.9040   15.9230 N.3   203  LYS203     -0.1314
     84  N         18.2520   59.1240   14.3960 N.am  204  ARG204     -0.1977
     85  CA        18.1250   58.5780   13.0480 C.3   204  ARG204      0.1597
     86  C         16.6330   58.3370   12.7850 C.2   204  ARG204      0.2287
     87  O         15.9890   57.5690   13.5060 O.2   204  ARG204     -0.2864
     88  CB        18.8810   57.2490   12.9370 C.3   204  ARG204      0.0334
     89  CG        20.3930   57.3670   13.0070 C.3   204  ARG204      0.0492
     90  CD        21.0520   56.0130   12.7700 C.3   204  ARG204      0.2205
     91  NE        22.4970   56.1320   12.5950 N.pl3 204  ARG204     -0.0865
     92  CZ        23.3100   55.1130   12.3330 C.cat 204  ARG204      0.5346
     93  NH1       22.8280   53.8810   12.2160 N.pl3 204  ARG204      0.1354
     94  NH2       24.6090   55.3310   12.1820 N.pl3 204  ARG204      0.1354
     95  N         14.0330   54.1160   12.5980 N.3   207  ALA207     -0.1245
     96  CA        14.8490   53.3120   13.5070 C.3   207  ALA207      0.1562
     97  C         14.0630   52.4680   14.5180 C.2   207  ALA207      0.2260
     98  O         14.5330   52.2310   15.6350 O.2   207  ALA207     -0.2867
     99  CB        15.8450   54.2120   14.2370 C.3   207  ALA207      0.0290
    100  N         16.8480   46.5700   17.6100 N.3   338  LEU338     -0.1231
    101  CA        16.8610   47.0170   16.2250 C.3   338  LEU338      0.1693
    102  C         17.9270   46.3070   15.3900 C.2   338  LEU338      0.2592
    103  O         17.6860   45.9770   14.2310 O.2   338  LEU338     -0.2718
    104  CB        17.0810   48.5360   16.1800 C.3   338  LEU338      0.0284
    105  CG        17.3180   49.1940   14.8150 C.3   338  LEU338      0.0019
    106  CD1       16.1710   48.8630   13.8640 C.3   338  LEU338      0.0001
    107  CD2       17.4480   50.7100   15.0020 C.3   338  LEU338      0.0001
    108  N         19.0940   46.0580   15.9840 N.am  339  CYS339     -0.1970
    109  CA        20.1910   45.4090   15.2650 C.3   339  CYS339      0.1712
    110  C         20.4170   43.9320   15.5720 C.2   339  CYS339      0.2296
    111  O         21.4520   43.3690   15.2170 O.2   339  CYS339     -0.2864
    112  CB        21.4830   46.1910   15.4840 C.3   339  CYS339      0.0983
    113  SG        21.3440   47.8870   14.8890 S.3   339  CYS339     -0.0798
    114  N         21.2630   42.2020   18.2250 N.3   341  GLU341     -0.1245
    115  CA        22.4030   41.7340   19.0010 C.3   341  GLU341      0.1567
    116  C         22.0540   41.6630   20.4880 C.2   341  GLU341      0.2260
    117  O         22.5920   40.8360   21.2230 O.2   341  GLU341     -0.2867
    118  CB        23.6380   42.6250   18.7680 C.3   341  GLU341      0.0388
    119  CG        23.7970   43.8490   19.6710 C.3   341  GLU341      0.1160
    120  CD        23.1140   45.0960   19.1300 C.2   341  GLU341      0.3649
    121  OE1       23.5240   46.2180   19.5200 O.co2 341  GLU341     -0.2457
    122  OE2       22.1640   44.9570   18.3290 O.co2 341  GLU341     -0.2457
    123  N         26.6130   50.1800   24.7600 N.3   356  LEU356     -0.1245
    124  CA        27.6260   49.6500   23.8400 C.3   356  LEU356      0.1561
    125  C         29.0230   50.2750   23.7310 C.2   356  LEU356      0.2260
    126  O         29.2270   51.4640   23.9830 O.2   356  LEU356     -0.2867
    127  CB        27.0240   49.5880   22.4270 C.3   356  LEU356      0.0270
    128  CG        25.9580   48.5430   22.0430 C.3   356  LEU356      0.0019
    129  CD1       24.9110   48.3890   23.1260 C.3   356  LEU356      0.0001
    130  CD2       25.3020   48.9720   20.7330 C.3   356  LEU356      0.0001
    131  N         28.0110   44.2620   18.0810 N.3   517  MET517     -0.1231
    132  CA        27.1040   45.0920   17.2840 C.3   517  MET517      0.1687
    133  C         27.6840   45.4510   15.9120 C.2   517  MET517      0.2434
    134  O         28.8620   45.2110   15.6530 O.2   517  MET517     -0.2733
    135  CB        26.7690   46.3730   18.0660 C.3   517  MET517      0.0400
    136  CG        27.9260   47.3590   18.2100 C.3   517  MET517      0.0596
    137  SD        29.3910   46.6840   19.0200 S.3   517  MET517     -0.1393
    138  CE        28.8200   46.4500   20.6900 C.3   517  MET517      0.0692
    139  N         26.8640   46.0440   15.0190 N.am  518  PRO518     -0.2718
    140  CA        27.2840   46.4410   13.6640 C.3   518  PRO518      0.1535
    141  C         28.4480   47.4460   13.5490 C.2   518  PRO518      0.2599
    142  O         29.2390   47.3710   12.6050 O.2   518  PRO518     -0.2715
    143  CB        25.9940   46.9980   13.0500 C.3   518  PRO518      0.0310
    144  CG        24.9320   46.2290   13.7480 C.3   518  PRO518      0.0237
    145  CD        25.4120   46.2450   15.1810 C.3   518  PRO518      0.0939
    146  N         28.5400   48.3810   14.4940 N.am  519  THR519     -0.1937
    147  CA        29.5810   49.4120   14.4970 C.3   519  THR519      0.2028
    148  C         29.6720   50.1170   13.1490 C.2   519  THR519      0.2642
    149  O         30.7470   50.5550   12.7400 O.2   519  THR519     -0.2714
    150  CB        30.9920   48.8380   14.8270 C.3   519  THR519      0.1808
    151  OG1       31.4290   47.9780   13.7660 O.3   519  THR519     -0.2208
    152  CG2       30.9690   48.0660   16.1350 C.3   519  THR519      0.0379
    153  N         28.5410   50.2290   12.4640 N.am  520  ALA520     -0.1963
    154  CA        28.4930   50.8670   11.1510 C.3   520  ALA520      0.1728
    155  C         29.2000   52.2180   11.0710 C.2   520  ALA520      0.2617
    156  O         29.8820   52.5030   10.0880 O.2   520  ALA520     -0.2715
    157  CB        27.0400   51.0150   10.7030 C.3   520  ALA520      0.0334
    158  N         29.0470   53.0480   12.0990 N.am  521  SER521     -0.1936
    159  CA        29.6700   54.3710   12.0910 C.3   521  SER521      0.2055
    160  C         30.9780   54.4850   12.8790 C.2   521  SER521      0.2643
    161  O         31.9320   55.1140   12.4130 O.2   521  SER521     -0.2714
    162  CB        28.6710   55.4230   12.5920 C.3   521  SER521      0.2130
    163  OG        27.5590   55.5400   11.7140 O.3   521  SER521     -0.2179
    164  N         31.0230   53.8870   14.0640 N.am  522  THR522     -0.1950
    165  CA        32.2210   53.9510   14.8930 C.3   522  THR522      0.1897
    166  C         33.4180   53.2510   14.2460 C.2   522  THR522      0.2313
    167  O         34.5620   53.6550   14.4630 O.2   522  THR522     -0.2863
    168  CB        31.9750   53.3620   16.3150 C.3   522  THR522      0.1794
    169  OG1       31.3850   52.0620   16.2130 O.3   522  THR522     -0.2208
    170  CG2       31.0630   54.2760   17.1150 C.3   522  THR522      0.0378
@<TRIPOS>BOND
     1   156   155    2
     2   157   154    1
     3   155   154    1
     4   155   158   am
     5   154   153    1
     6   163   162    1
     7   159   158    1
     8   159   162    1
     9   159   160    1
    10    94    92    1
    11    93    92    1
    12    92    91    2
    13   161   160    2
    14   153   148   am
    15    91    90    1
    16    95    96    1
    17   142   141    2
    18   149   148    2
    19    90    89    1
    20    86    85    1
    21    86    87    2
    22   160   164   am
    23    88    89    1
    24    88    85    1
    25    85    84    1
    26   143   140    1
    27   143   144    1
    28   148   147    1
    29    96    99    1
    30    96    97    1
    31   141   140    1
    32   141   146   am
    33   140   139    1
    34   144   145    1
    35   151   150    1
    36    78    77    2
    37   106   105    1
    38   164   165    1
    39     9     7   ar
    40     9    11   ar
    41   103   102    2
    42   166   167    2
    43   166   165    1
    44    84    77   am
    45     7     6   ar
    46   146   147    1
    47   147   150    1
    48    97    98    2
    49    12    11    1
    50    77    76    1
    51   105   107    1
    52   105   104    1
    53     1     2    1
    54   150   152    1
    55   113   112    1
    56   165   168    1
    57    11    10   ar
    58   139   145    1
    59   139   133   am
    60   111   110    2
    61   109   112    1
    62   109   110    1
    63   109   108    1
    64   102   108   am
    65   102   101    1
    66   134   133    2
    67     6     5    1
    68     6     8   ar
    69   133   132    1
    70    83    82    1
    71    70    69    2
    72    76    75    1
    73    76    79    1
    74   104   101    1
    75     2     5    1
    76     2     3    1
    77   169   168    1
    78   101   100    1
    79   168   170    1
    80    10     8   ar
    81    69    75   am
    82    69    68    1
    83    23    22    1
    84    80    79    1
    85    80    81    1
    86    41    40   ar
    87    41    39   ar
    88    67    68    1
    89     3     4    2
    90    40    38   ar
    91    81    82    1
    92    68    71    1
    93   132   135    1
    94   132   131    1
    95    22    19    1
    96    39    37   ar
    97   135   136    1
    98   136   137    1
    99   114   115    1
   100    38    36   ar
   101   122   120   ar
   102    73    72    2
   103    64    63    1
   104    64    65    1
   105    71    72    1
   106   118   115    1
   107   118   119    1
   108    19    18    1
   109    19    20    1
   110    37    36   ar
   111    72    74   am
   112   115   116    1
   113   137   138    1
   114   120   121   ar
   115   120   119    1
   116    62    61    2
   117    36    35    1
   118    18    15   am
   119    63    61   am
   120    65    66    2
   121    53    52    1
   122    61    60    1
   123    20    21    2
   124    20    24   am
   125    59    60    1
   126    59    56   am
   127    30    24    1
   128    30    29    1
   129    45    44    2
   130    15    14    1
   131    15    16    2
   132   116   117    2
   133    24    25    1
   134    35    32    1
   135    55    58    1
   136    55    56    1
   137    55    54    1
   138    14    17    1
   139    14    13    1
   140   130   128    1
   141    29    28    1
   142    56    57    2
   143    52    49    1
   144    32    31    1
   145    32    33    1
   146    47    46    1
   147    46    43    1
   148    44    43    1
   149    44    48   am
   150    25    28    1
   151    25    26    1
   152    43    42    1
   153    49    48    1
   154    49    50    1
   155   128   127    1
   156   128   129    1
   157    33    34    2
   158   127   124    1
   159    26    27    2
   160    50    51    2
   161   125   124    1
   162   125   126    2
   163   124   123    1
