@<TRIPOS>MOLECULE
tmp/2eukA02.pdb
 242 232 0 0 0
SMALL
GASTEIGER

@<TRIPOS>ATOM
      1  N         -2.4900    3.9160   19.2520 N.3     1  LEU1       -0.1245
      2  CA        -1.5550    3.7740   18.0980 C.3     1  LEU1        0.1561
      3  C         -2.1140    4.6530   16.9830 C.2     1  LEU1        0.2260
      4  O         -1.3890    5.4460   16.3740 O.2     1  LEU1       -0.2867
      5  CB        -1.4950    2.3090   17.6620 C.3     1  LEU1        0.0270
      6  CG        -0.1410    1.6280   17.4790 C.3     1  LEU1        0.0019
      7  CD1        0.9760    2.2800   18.3000 C.3     1  LEU1        0.0001
      8  CD2       -0.2130    0.1120   17.7280 C.3     1  LEU1        0.0001
      9  N          5.9490    6.1110   19.9590 N.3    27  LEU27      -0.1245
     10  CA         6.0510    4.6630   20.1520 C.3    27  LEU27       0.1561
     11  C          6.7770    4.2020   21.4180 C.2    27  LEU27       0.2260
     12  O          6.2580    3.3100   22.0860 O.2    27  LEU27      -0.2867
     13  CB         6.5140    3.9110   18.8930 C.3    27  LEU27       0.0270
     14  CG         5.6810    4.1550   17.6220 C.3    27  LEU27       0.0019
     15  CD1        6.4470    3.6550   16.4090 C.3    27  LEU27       0.0001
     16  CD2        4.3440    3.4320   17.6860 C.3    27  LEU27       0.0001
     17  N          4.8260    3.3270   24.6440 N.3    30  PHE30      -0.1227
     18  CA         4.0750    2.0760   24.7470 C.3    30  PHE30       0.1736
     19  C          4.8210    1.0150   25.5600 C.2    30  PHE30       0.2595
     20  O          4.1860    0.1380   26.1530 O.2    30  PHE30      -0.2718
     21  CB         3.7160    1.5080   23.3730 C.3    30  PHE30       0.0547
     22  CG         2.5990    2.2420   22.6890 C.ar   30  PHE30      -0.0202
     23  CD1        2.8530    3.3890   21.9420 C.ar   30  PHE30      -0.0042
     24  CD2        1.2900    1.7970   22.8080 C.ar   30  PHE30      -0.0042
     25  CE1        1.8160    4.0800   21.3240 C.ar   30  PHE30      -0.0003
     26  CE2        0.2410    2.4720   22.1760 C.ar   30  PHE30      -0.0003
     27  CZ         0.5010    3.6090   21.4330 C.ar   30  PHE30      -0.0000
     28  N          6.1540    1.0970   25.5670 N.am   31  PHE31      -0.1976
     29  CA         7.0220    0.1800   26.3080 C.3    31  PHE31       0.1639
     30  C          6.9370    0.2970   27.8320 C.2    31  PHE31       0.2290
     31  O          7.3090   -0.6400   28.5350 O.2    31  PHE31      -0.2864
     32  CB         8.4720    0.2940   25.8420 C.3    31  PHE31       0.0560
     33  CG         8.7190   -0.3410   24.5050 C.ar   31  PHE31      -0.0200
     34  CD1        8.8390   -1.7190   24.3930 C.ar   31  PHE31      -0.0042
     35  CD2        8.8030    0.4330   23.3560 C.ar   31  PHE31      -0.0042
     36  CE1        9.0460   -2.3190   23.1610 C.ar   31  PHE31      -0.0003
     37  CE2        9.0130   -0.1610   22.1150 C.ar   31  PHE31      -0.0003
     38  CZ         9.1490   -1.5320   22.0190 C.ar   31  PHE31      -0.0000
     39  N          3.9320   -2.2540   29.1760 N.3    34  LEU34      -0.1245
     40  CA         4.0040   -3.7000   28.9520 C.3    34  LEU34       0.1561
     41  C          4.2650   -4.5010   30.2280 C.2    34  LEU34       0.2260
     42  O          4.3640   -5.7320   30.1920 O.2    34  LEU34      -0.2867
     43  CB         5.0770   -4.0230   27.9150 C.3    34  LEU34       0.0270
     44  CG         4.7060   -4.0750   26.4320 C.3    34  LEU34       0.0019
     45  CD1        3.6150   -3.0820   26.0710 C.3    34  LEU34       0.0001
     46  CD2        5.9450   -3.8570   25.5920 C.3    34  LEU34       0.0001
     47  N         11.7200   -3.9640   29.6180 N.3    39  PHE39      -0.1241
     48  CA        11.5530   -3.0430   28.4910 C.3    39  PHE39       0.1605
     49  C         12.2960   -1.7240   28.6070 C.2    39  PHE39       0.2264
     50  O         12.3430   -0.9690   27.6360 O.2    39  PHE39      -0.2867
     51  CB        10.0680   -2.7960   28.2170 C.3    39  PHE39       0.0534
     52  CG         9.3420   -4.0530   27.8610 C.ar   39  PHE39      -0.0203
     53  CD1        9.5460   -4.6640   26.6320 C.ar   39  PHE39      -0.0042
     54  CD2        8.5160   -4.6660   28.7920 C.ar   39  PHE39      -0.0042
     55  CE1        8.8940   -5.8470   26.3140 C.ar   39  PHE39      -0.0003
     56  CE2        7.8550   -5.8550   28.4780 C.ar   39  PHE39      -0.0003
     57  CZ         8.0480   -6.4450   27.2500 C.ar   39  PHE39      -0.0000
     58  N         15.1870   -1.2880   26.0970 N.3    42  ILE42      -0.1245
     59  CA        14.6280   -1.3450   24.7410 C.3    42  ILE42       0.1561
     60  C         14.1000    0.0370   24.3640 C.2    42  ILE42       0.2260
     61  O         14.4320    0.6080   23.3130 O.2    42  ILE42      -0.2867
     62  CB        13.5170   -2.4040   24.6960 C.3    42  ILE42       0.0252
     63  CG1       14.1430   -3.8020   24.6780 C.3    42  ILE42       0.0019
     64  CG2       12.6000   -2.1640   23.5160 C.3    42  ILE42       0.0019
     65  CD1       13.1470   -4.9110   24.9940 C.3    42  ILE42       0.0001
     66  N         17.0560    2.4070   23.7760 N.3    45  ASP45      -0.1225
     67  CA        17.6710    2.2480   22.4520 C.3    45  ASP45       0.1805
     68  C         16.9090    3.0250   21.3730 C.2    45  ASP45       0.2597
     69  O         17.5030    3.7840   20.5800 O.2    45  ASP45      -0.2718
     70  CB        17.8330    0.7590   22.0660 C.3    45  ASP45       0.1424
     71  CG        18.5900    0.5870   20.7470 C.2    45  ASP45       0.3668
     72  OD1       19.8350    0.4480   20.7490 O.co2  45  ASP45      -0.2456
     73  OD2       17.9510    0.6940   19.6770 O.co2  45  ASP45      -0.2456
     74  N         15.6030    2.7870   21.3490 N.am   46  ILE46      -0.1980
     75  CA        14.7520    3.3250   20.2870 C.3    46  ILE46       0.1595
     76  C         14.7300    4.8380   20.5100 C.2    46  ILE46       0.2287
     77  O         15.0110    5.6070   19.5970 O.2    46  ILE46      -0.2864
     78  CB        13.3060    2.7170   20.2960 C.3    46  ILE46       0.0276
     79  CG1       13.3120    1.2170   19.9200 C.3    46  ILE46       0.0022
     80  CG2       12.4760    3.5430   19.3020 C.3    46  ILE46       0.0022
     81  CD1       12.0400    0.4200   20.1950 C.3    46  ILE46       0.0001
     82  N         19.7410    1.6980   12.8200 N.3    93  TRP93      -0.1241
     83  CA        19.2340    0.9030   13.9400 C.3    93  TRP93       0.1605
     84  C         17.7960    1.2420   14.3220 C.2    93  TRP93       0.2264
     85  O         17.0100    0.3560   14.7210 O.2    93  TRP93      -0.2867
     86  CB        20.1770    1.0570   15.1450 C.3    93  TRP93       0.0550
     87  CG        21.4800    0.2900   14.9600 C.ar   93  TRP93       0.0003
     88  CD1       22.6720    0.7490   14.4650 C.ar   93  TRP93       0.0946
     89  CD2       21.6330   -1.1230   15.1250 C.ar   93  TRP93       0.0152
     90  NE1       23.5820   -0.3000   14.3990 N.ar   93  TRP93      -0.2442
     91  CE2       22.9710   -1.4460   14.8260 C.ar   93  TRP93       0.0810
     92  CE3       20.7630   -2.1410   15.5570 C.ar   93  TRP93       0.0012
     93  CZ2       23.4680   -2.7600   14.9340 C.ar   93  TRP93       0.0191
     94  CZ3       21.2400   -3.4020   15.7020 C.ar   93  TRP93       0.0001
     95  CH2       22.5990   -3.7190   15.3830 C.ar   93  TRP93       0.0015
     96  N         14.4250   -1.3500   14.7860 N.3    97  GLY97      -0.1225
     97  CA        13.4420   -1.3570   15.8900 C.3    97  GLY97       0.1811
     98  C         12.0010   -1.1120   15.3960 C.2    97  GLY97       0.2280
     99  O         11.0440   -1.7700   15.8380 O.2    97  GLY97      -0.2866
    100  N         10.8210   -4.2250   13.6210 N.3   100  PHE100     -0.1227
    101  CA        10.3820   -5.1600   14.6480 C.3   100  PHE100      0.1736
    102  C          8.9350   -4.9070   15.0920 C.2   100  PHE100      0.2595
    103  O          8.1110   -5.8520   15.1310 O.2   100  PHE100     -0.2718
    104  CB        11.3150   -5.2240   15.8850 C.3   100  PHE100      0.0547
    105  CG        10.7670   -6.1140   16.9700 C.ar  100  PHE100     -0.0202
    106  CD1       11.2660   -7.3990   17.1350 C.ar  100  PHE100     -0.0042
    107  CD2        9.7360   -5.6740   17.8150 C.ar  100  PHE100     -0.0042
    108  CE1       10.7350   -8.2410   18.1480 C.ar  100  PHE100     -0.0003
    109  CE2        9.1970   -6.5010   18.8160 C.ar  100  PHE100     -0.0003
    110  CZ         9.6950   -7.7800   18.9840 C.ar  100  PHE100     -0.0000
    111  N          8.6040   -3.6660   15.4450 N.am  101  ILE101     -0.1980
    112  CA         7.2380   -3.3370   15.8830 C.3   101  ILE101      0.1595
    113  C          6.2210   -3.6330   14.7670 C.2   101  ILE101      0.2287
    114  O          5.1200   -4.1780   15.0030 O.2   101  ILE101     -0.2864
    115  CB         7.1320   -1.8660   16.3730 C.3   101  ILE101      0.0276
    116  CG1        8.0310   -1.6880   17.6040 C.3   101  ILE101      0.0022
    117  CG2        5.6770   -1.4640   16.7440 C.3   101  ILE101      0.0022
    118  CD1        8.4040   -0.3070   17.8980 C.3   101  ILE101      0.0001
    119  N          5.7460   -7.5500   14.2440 N.3   104  PHE104     -0.1227
    120  CA         5.0250   -8.0280   15.4250 C.3   104  PHE104      0.1736
    121  C          3.5440   -7.6440   15.3580 C.2   104  PHE104      0.2595
    122  O          2.6570   -8.5100   15.4700 O.2   104  PHE104     -0.2718
    123  CB         5.6440   -7.3770   16.6560 C.3   104  PHE104      0.0547
    124  CG         4.9480   -7.6980   17.9530 C.ar  104  PHE104     -0.0202
    125  CD1        5.0890   -8.9380   18.5320 C.ar  104  PHE104     -0.0042
    126  CD2        4.2290   -6.7130   18.6260 C.ar  104  PHE104     -0.0042
    127  CE1        4.5020   -9.2460   19.7750 C.ar  104  PHE104     -0.0003
    128  CE2        3.6410   -6.9880   19.8750 C.ar  104  PHE104     -0.0003
    129  CZ         3.7610   -8.2650   20.4290 C.ar  104  PHE104     -0.0000
    130  N          3.2570   -6.3550   15.1640 N.am  105  LEU105     -0.1980
    131  CA         1.8520   -5.9640   15.0920 C.3   105  LEU105      0.1596
    132  C          1.1030   -6.6670   13.9640 C.2   105  LEU105      0.2287
    133  O         -0.0310   -7.1210   14.1920 O.2   105  LEU105     -0.2864
    134  CB         1.6290   -4.4580   14.9900 C.3   105  LEU105      0.0297
    135  CG         2.1450   -3.7610   16.2630 C.3   105  LEU105      0.0022
    136  CD1        2.1260   -2.2590   16.0170 C.3   105  LEU105      0.0001
    137  CD2        1.4040   -4.1110   17.5330 C.3   105  LEU105      0.0001
    138  N          1.9640  -14.3430   22.9930 N.3   121  ILE121     -0.1245
    139  CA         2.4070  -13.5600   21.8370 C.3   121  ILE121      0.1561
    140  C          3.8700  -13.8490   21.5190 C.2   121  ILE121      0.2260
    141  O          4.5300  -13.0700   20.8250 O.2   121  ILE121     -0.2867
    142  CB         2.2340  -12.0340   21.9900 C.3   121  ILE121      0.0252
    143  CG1        3.0240  -11.5220   23.2040 C.3   121  ILE121      0.0019
    144  CG2        0.7660  -11.6550   22.0520 C.3   121  ILE121      0.0019
    145  CD1        2.9230  -10.0400   23.4200 C.3   121  ILE121      0.0001
    146  N          6.3430  -12.3710   18.5200 N.3   125  ALA125     -0.1245
    147  CA         7.5720  -11.6470   18.8550 C.3   125  ALA125      0.1562
    148  C          8.8020  -12.3140   18.2450 C.2   125  ALA125      0.2260
    149  O          9.7080  -11.6560   17.6880 O.2   125  ALA125     -0.2867
    150  CB         7.6680  -11.5750   20.3700 C.3   125  ALA125      0.0290
    151  N         11.4590  -10.6650   15.7680 N.3   129  TYR129     -0.1241
    152  CA        12.8900  -10.7330   16.0510 C.3   129  TYR129      0.1605
    153  C         13.6870  -11.3320   14.8900 C.2   129  TYR129      0.2264
    154  O         14.6550  -10.7290   14.3770 O.2   129  TYR129     -0.2867
    155  CB        13.1200  -11.5140   17.3550 C.3   129  TYR129      0.0534
    156  CG        14.5470  -11.4520   17.8070 C.ar  129  TYR129     -0.0201
    157  CD1       15.1000  -10.2630   18.2700 C.ar  129  TYR129     -0.0009
    158  CD2       15.3730  -12.5720   17.7160 C.ar  129  TYR129     -0.0009
    159  CE1       16.4500  -10.2160   18.6870 C.ar  129  TYR129      0.0417
    160  CE2       16.7120  -12.5390   18.1400 C.ar  129  TYR129      0.0417
    161  CZ        17.2510  -11.3640   18.6230 C.ar  129  TYR129      0.1957
    162  OH        18.5850  -11.3700   19.0150 O.3   129  TYR129     -0.2866
    163  N         15.7390   -8.2060   13.5970 N.3   133  LEU133     -0.1245
    164  CA        16.8650   -7.9400   14.4890 C.3   133  LEU133      0.1561
    165  C         17.9300   -9.0270   14.4960 C.2   133  LEU133      0.2260
    166  O         19.1210   -8.6960   14.5450 O.2   133  LEU133     -0.2867
    167  CB        16.4070   -7.6700   15.9240 C.3   133  LEU133      0.0270
    168  CG        15.6800   -6.3180   16.0620 C.3   133  LEU133      0.0019
    169  CD1       14.9260   -6.2420   17.3880 C.3   133  LEU133      0.0001
    170  CD2       16.6510   -5.1680   15.8850 C.3   133  LEU133      0.0001
    171  N         22.5610   -9.4830   15.6790 N.3   137  HIS137     -0.1241
    172  CA        22.9330   -9.8260   17.0410 C.3   137  HIS137      0.1621
    173  C         23.8490  -11.0600   17.1110 C.2   137  HIS137      0.2264
    174  O         23.5620  -12.1100   16.5110 O.2   137  HIS137     -0.2867
    175  CB        21.6820  -10.0910   17.8860 C.3   137  HIS137      0.0745
    176  CG        20.8230   -8.8800   18.0810 C.ar  137  HIS137      0.0817
    177  ND1       19.5860   -8.9350   18.6880 N.ar  137  HIS137     -0.2268
    178  CD2       21.0490   -7.5760   17.7810 C.ar  137  HIS137      0.1154
    179  CE1       19.0760   -7.7140   18.7350 C.ar  137  HIS137      0.1986
    180  NE2       19.9460   -6.8710   18.2040 N.ar  137  HIS137     -0.2212
    181  N         17.5750  -11.9250   24.3310 N.3   145  PHE145     -0.1241
    182  CA        16.2410  -11.9070   23.7320 C.3   145  PHE145      0.1605
    183  C         15.4030  -13.1300   24.1470 C.2   145  PHE145      0.2264
    184  O         14.2230  -13.0210   24.5180 O.2   145  PHE145     -0.2867
    185  CB        16.2760  -11.7850   22.2050 C.3   145  PHE145      0.0534
    186  CG        14.9210  -12.0230   21.5910 C.ar  145  PHE145     -0.0203
    187  CD1       13.9690  -11.0110   21.5820 C.ar  145  PHE145     -0.0042
    188  CD2       14.5540  -13.2940   21.1440 C.ar  145  PHE145     -0.0042
    189  CE1       12.7020  -11.2280   21.0670 C.ar  145  PHE145     -0.0003
    190  CE2       13.2980  -13.5170   20.6140 C.ar  145  PHE145     -0.0003
    191  CZ        12.3570  -12.4900   20.6000 C.ar  145  PHE145     -0.0000
    192  N         14.2040  -12.4820   27.6140 N.3   148  ALA148     -0.1231
    193  CA        13.2910  -11.3470   27.6930 C.3   148  ALA148      0.1694
    194  C         11.9270  -11.7560   27.1300 C.2   148  ALA148      0.2591
    195  O         10.9000  -11.2190   27.5330 O.2   148  ALA148     -0.2718
    196  CB        13.8890  -10.1590   26.9450 C.3   148  ALA148      0.0304
    197  N         11.9200  -12.7330   26.2160 N.am  149  LEU149     -0.1980
    198  CA        10.6810  -13.2210   25.6110 C.3   149  LEU149      0.1596
    199  C          9.7030  -13.6170   26.7060 C.2   149  LEU149      0.2287
    200  O          8.4960  -13.4460   26.5710 O.2   149  LEU149     -0.2864
    201  CB        10.9760  -14.3880   24.6550 C.3   149  LEU149      0.0297
    202  CG         9.9040  -14.9310   23.7140 C.3   149  LEU149      0.0022
    203  CD1        9.2190  -13.8090   22.9260 C.3   149  LEU149      0.0001
    204  CD2       10.5610  -15.9370   22.7830 C.3   149  LEU149      0.0001
    205  N          6.9540  -11.0700   27.9370 N.3   152  ALA152     -0.1231
    206  CA         5.7800  -10.7370   27.1100 C.3   152  ALA152      0.1679
    207  C          4.4430  -10.8590   27.8610 C.2   152  ALA152      0.2434
    208  O          4.2290  -11.8550   28.5560 O.2   152  ALA152     -0.2733
    209  CB         5.7330  -11.6030   25.8720 C.3   152  ALA152      0.0304
    210  N          3.5450   -9.8610   27.7140 N.am  153  PRO153     -0.2729
    211  CA         2.2080  -10.0540   28.2850 C.3   153  PRO153      0.1401
    212  C          1.3890  -11.0820   27.5040 C.2   153  PRO153      0.2269
    213  O          1.8210  -11.5400   26.4470 O.2   153  PRO153     -0.2865
    214  CB         1.5760   -8.6580   28.2590 C.3   153  PRO153      0.0296
    215  CG         2.5660   -7.7440   27.6020 C.3   153  PRO153      0.0237
    216  CD         3.7120   -8.5500   27.0580 C.3   153  PRO153      0.0939
    217  N         -2.1230   -7.5900   26.3410 N.3   158  PHE158     -0.1241
    218  CA        -1.4540   -6.6690   25.4300 C.3   158  PHE158      0.1605
    219  C         -2.4450   -5.7240   24.7450 C.2   158  PHE158      0.2264
    220  O         -2.2120   -4.5120   24.6530 O.2   158  PHE158     -0.2867
    221  CB        -0.6440   -7.4450   24.3840 C.3   158  PHE158      0.0534
    222  CG         0.0630   -6.5620   23.3910 C.ar  158  PHE158     -0.0203
    223  CD1        1.0830   -5.7110   23.8060 C.ar  158  PHE158     -0.0042
    224  CD2       -0.2850   -6.5900   22.0490 C.ar  158  PHE158     -0.0042
    225  CE1        1.7470   -4.8870   22.8990 C.ar  158  PHE158     -0.0003
    226  CE2        0.3600   -5.7730   21.1330 C.ar  158  PHE158     -0.0003
    227  CZ         1.3910   -4.9220   21.5570 C.ar  158  PHE158     -0.0000
    228  N         -3.2900   -1.5420   24.8110 N.3   162  LEU162     -0.1245
    229  CA        -3.3300   -0.5830   23.7080 C.3   162  LEU162      0.1561
    230  C         -4.7190    0.0740   23.6050 C.2   162  LEU162      0.2260
    231  O         -4.8980    1.0150   22.8350 O.2   162  LEU162     -0.2867
    232  CB        -2.9360   -1.2460   22.3770 C.3   162  LEU162      0.0270
    233  CG        -1.6030   -1.9700   22.1570 C.3   162  LEU162      0.0019
    234  CD1       -1.5620   -2.7120   20.8150 C.3   162  LEU162      0.0001
    235  CD2       -0.4200   -1.0350   22.2290 C.3   162  LEU162      0.0001
    236  N         26.1410   -7.1610   16.8820 N.3   204  VAL204     -0.1245
    237  CA        26.5070   -6.6260   18.1840 C.3   204  VAL204      0.1561
    238  C         26.5410   -7.6740   19.2930 C.2   204  VAL204      0.2260
    239  O         25.8340   -8.6800   19.3850 O.2   204  VAL204     -0.2867
    240  CB        25.6410   -5.4150   18.5970 C.3   204  VAL204      0.0252
    241  CG1       25.9850   -4.1950   17.7350 C.3   204  VAL204      0.0019
    242  CG2       24.1490   -5.7250   18.5270 C.3   204  VAL204      0.0019
@<TRIPOS>BOND
     1    82    83    1
     2   163   164    1
     3   100   101    1
     4    83    84    1
     5    83    86    1
     6   132   133    2
     7   132   131    1
     8   119   120    1
     9    84    85    2
    10   154   153    2
    11    90    88   ar
    12    90    91   ar
    13    88    87   ar
    14   164   165    1
    15   164   167    1
    16   165   166    2
    17   101   102    1
    18   101   104    1
    19   113   114    2
    20   113   112    1
    21    96    97    1
    22    91    93   ar
    23    91    89   ar
    24   153   152    1
    25    93    95   ar
    26    87    89   ar
    27    87    86    1
    28   134   131    1
    29   134   135    1
    30   102   103    2
    31   102   111   am
    32   131   130    1
    33    89    92   ar
    34   130   121   am
    35   121   120    1
    36   121   122    2
    37    95    94   ar
    38    98    99    2
    39    98    97    1
    40   120   123    1
    41   111   112    1
    42    92    94   ar
    43   171   172    1
    44   151   152    1
    45   112   115    1
    46   170   168    1
    47   104   105    1
    48   167   168    1
    49   136   135    1
    50   152   155    1
    51   168   169    1
    52   135   137    1
    53   115   117    1
    54   115   116    1
    55     4     3    2
    56    15    14    1
    57   174   173    2
    58   123   124    1
    59   236   237    1
    60   105   106   ar
    61   105   107   ar
    62     3     2    1
    63   172   173    1
    64   172   175    1
    65   106   108   ar
    66   155   156    1
    67     6     5    1
    68     6     8    1
    69     6     7    1
    70   116   118    1
    71    14    16    1
    72    14    13    1
    73     5     2    1
    74   149   148    2
    75   158   156   ar
    76   158   160   ar
    77   241   240    1
    78   178   176   ar
    79   178   180   ar
    80   156   157   ar
    81   107   109   ar
    82   175   176    1
    83   124   125   ar
    84   124   126   ar
    85   176   177   ar
    86     2     1    1
    87   160   161   ar
    88   108   110   ar
    89   237   240    1
    90   237   238    1
    91   180   179   ar
    92   148   147    1
    93   157   159   ar
    94   146   147    1
    95   242   240    1
    96   125   127   ar
    97   161   159   ar
    98   161   162    1
    99   126   128   ar
   100   177   179   ar
   101   109   110   ar
   102   147   150    1
   103    13    10    1
   104   238   239    2
   105    80    78    1
   106    77    76    2
   107    73    71   ar
   108   127   129   ar
   109   128   129   ar
   110    79    81    1
   111    79    78    1
   112     9    10    1
   113    10    11    1
   114    75    78    1
   115    75    76    1
   116    75    74    1
   117    69    68    2
   118   191   190   ar
   119   191   189   ar
   120   190   188   ar
   121    71    72   ar
   122    71    70    1
   123   234   233    1
   124   141   140    2
   125   189   187   ar
   126   226   227   ar
   127   226   224   ar
   128   188   186   ar
   129    25    27   ar
   130    25    23   ar
   131    74    68   am
   132    68    67    1
   133    11    12    2
   134    27    26   ar
   135   140   139    1
   136   227   225   ar
   137   187   186   ar
   138   186   185    1
   139   139   142    1
   140   139   138    1
   141    23    22   ar
   142   142   144    1
   143   142   143    1
   144    38    37   ar
   145    38    36   ar
   146   224   222   ar
   147    70    67    1
   148    37    35   ar
   149   233   235    1
   150   233   232    1
   151    26    24   ar
   152   185   182    1
   153   232   229    1
   154    67    66    1
   155    22    24   ar
   156    22    21    1
   157   204   202    1
   158   231   230    2
   159   225   223   ar
   160   203   202    1
   161    36    34   ar
   162   143   145    1
   163    61    60    2
   164    35    33   ar
   165    21    18    1
   166   222   223   ar
   167   222   221    1
   168    64    62    1
   169   230   229    1
   170   229   228    1
   171   202   201    1
   172   182   183    1
   173   182   181    1
   174   183   184    2
   175    60    59    1
   176   221   218    1
   177    34    33   ar
   178    33    32    1
   179    17    18    1
   180   220   219    2
   181   201   198    1
   182    63    62    1
   183    63    65    1
   184    62    59    1
   185    59    58    1
   186   219   218    1
   187    18    19    1
   188   218   217    1
   189    19    28   am
   190    19    20    2
   191    28    29    1
   192    46    44    1
   193   198   197    1
   194   198   199    1
   195    32    29    1
   196   209   206    1
   197    45    44    1
   198   197   194   am
   199    29    30    1
   200    55    53   ar
   201    55    57   ar
   202    44    43    1
   203   213   212    2
   204   200   199    2
   205    53    52   ar
   206   196   193    1
   207   216   215    1
   208   216   210    1
   209   206   207    1
   210   206   205    1
   211   194   195    2
   212   194   193    1
   213    57    56   ar
   214   212   211    1
   215   215   214    1
   216   192   193    1
   217    50    49    2
   218   210   207   am
   219   210   211    1
   220    30    31    2
   221   207   208    2
   222    52    51    1
   223    52    54   ar
   224    43    40    1
   225    51    48    1
   226   214   211    1
   227    56    54   ar
   228    48    49    1
   229    48    47    1
   230    40    39    1
   231    40    41    1
   232    42    41    2
