@<TRIPOS>MOLECULE
tmp/2eumA02.pdb
 100 96 0 0 0
SMALL
GASTEIGER

@<TRIPOS>ATOM
      1  N          6.0240    0.8940   25.3730 N.3    31  PHE31      -0.1241
      2  CA         6.8760   -0.0830   26.0650 C.3    31  PHE31       0.1605
      3  C          6.7270   -0.0610   27.5930 C.2    31  PHE31       0.2264
      4  O          7.0300   -1.0500   28.2550 O.2    31  PHE31      -0.2867
      5  CB         8.3480    0.0790   25.6740 C.3    31  PHE31       0.0534
      6  CG         8.6670   -0.4500   24.3140 C.ar   31  PHE31      -0.0203
      7  CD1        8.8330   -1.8160   24.1100 C.ar   31  PHE31      -0.0042
      8  CD2        8.7960    0.4180   23.2280 C.ar   31  PHE31      -0.0042
      9  CE1        9.1250   -2.3140   22.8470 C.ar   31  PHE31      -0.0003
     10  CE2        9.0920   -0.0690   21.9600 C.ar   31  PHE31      -0.0003
     11  CZ         9.2580   -1.4380   21.7680 C.ar   31  PHE31      -0.0000
     12  N         15.0390   -1.4870   25.8410 N.3    42  ILE42      -0.1245
     13  CA        14.4930   -1.5140   24.5060 C.3    42  ILE42       0.1561
     14  C         13.9310   -0.1380   24.1610 C.2    42  ILE42       0.2260
     15  O         14.1980    0.3840   23.0720 O.2    42  ILE42      -0.2867
     16  CB        13.4110   -2.5710   24.3820 C.3    42  ILE42       0.0252
     17  CG1       14.0160   -3.9790   24.5000 C.3    42  ILE42       0.0019
     18  CG2       12.6610   -2.3950   23.0800 C.3    42  ILE42       0.0019
     19  CD1       12.9800   -5.1200   24.4830 C.3    42  ILE42       0.0001
     20  N         16.8610    2.3660   23.6440 N.3    45  ASP45      -0.1225
     21  CA        17.5520    2.2670   22.3760 C.3    45  ASP45       0.1805
     22  C         16.7660    2.9790   21.2840 C.2    45  ASP45       0.2597
     23  O         17.3550    3.6610   20.4290 O.2    45  ASP45      -0.2718
     24  CB        17.7860    0.8060   21.9920 C.3    45  ASP45       0.1424
     25  CG        18.5150    0.6710   20.6760 C.2    45  ASP45       0.3668
     26  OD1       19.7670    0.5440   20.6930 O.co2  45  ASP45      -0.2456
     27  OD2       17.8400    0.7350   19.6200 O.co2  45  ASP45      -0.2456
     28  N         15.4460    2.8250   21.3080 N.am   46  ILE46      -0.1980
     29  CA        14.6180    3.4430   20.2790 C.3    46  ILE46       0.1595
     30  C         14.5930    4.9600   20.4940 C.2    46  ILE46       0.2287
     31  O         14.8540    5.7110   19.5540 O.2    46  ILE46      -0.2864
     32  CB        13.1960    2.8040   20.1840 C.3    46  ILE46       0.0276
     33  CG1       13.3100    1.3210   19.7890 C.3    46  ILE46       0.0022
     34  CG2       12.3340    3.5330   19.1450 C.3    46  ILE46       0.0022
     35  CD1       12.0570    0.5190   19.9360 C.3    46  ILE46       0.0001
     36  N         19.5720    1.6770   12.8850 N.3    93  TRP93      -0.1241
     37  CA        19.1250    0.8670   14.0120 C.3    93  TRP93       0.1605
     38  C         17.6920    1.1860   14.4420 C.2    93  TRP93       0.2264
     39  O         16.9650    0.3010   14.9240 O.2    93  TRP93      -0.2867
     40  CB        20.0940    1.0100   15.1790 C.3    93  TRP93       0.0550
     41  CG        21.3650    0.2160   14.9870 C.ar   93  TRP93       0.0003
     42  CD1       22.5720    0.6880   14.5600 C.ar   93  TRP93       0.0946
     43  CD2       21.5390   -1.1980   15.1950 C.ar   93  TRP93       0.0152
     44  NE1       23.4910   -0.3370   14.4980 N.ar   93  TRP93      -0.2442
     45  CE2       22.8850   -1.5010   14.8990 C.ar   93  TRP93       0.0810
     46  CE3       20.6870   -2.2350   15.6180 C.ar   93  TRP93       0.0012
     47  CZ2       23.4040   -2.8000   15.0180 C.ar   93  TRP93       0.0191
     48  CZ3       21.1990   -3.5140   15.7400 C.ar   93  TRP93       0.0001
     49  CH2       22.5480   -3.7880   15.4400 C.ar   93  TRP93       0.0015
     50  N         14.2890   -1.4390   14.7710 N.3    97  GLY97      -0.1225
     51  CA        13.3580   -1.4500   15.9140 C.3    97  GLY97       0.1811
     52  C         11.9420   -1.1570   15.4470 C.2    97  GLY97       0.2280
     53  O         10.9750   -1.7250   15.9640 O.2    97  GLY97      -0.2866
     54  N         10.7320   -4.1410   13.5680 N.3   100  PHE100     -0.1241
     55  CA        10.3480   -5.1140   14.5670 C.3   100  PHE100      0.1605
     56  C          8.9210   -4.8700   15.0230 C.2   100  PHE100      0.2264
     57  O          8.1260   -5.8040   15.0790 O.2   100  PHE100     -0.2867
     58  CB        11.3020   -5.1260   15.7640 C.3   100  PHE100      0.0534
     59  CG        10.8780   -6.0720   16.8430 C.ar  100  PHE100     -0.0203
     60  CD1       11.4060   -7.3520   16.9010 C.ar  100  PHE100     -0.0042
     61  CD2        9.8880   -5.7020   17.7670 C.ar  100  PHE100     -0.0042
     62  CE1       10.9910   -8.2450   17.8830 C.ar  100  PHE100     -0.0003
     63  CE2        9.4570   -6.5940   18.7420 C.ar  100  PHE100     -0.0003
     64  CZ        10.0210   -7.8710   18.8040 C.ar  100  PHE100     -0.0000
     65  N         15.7220   -8.1230   13.5870 N.3   133  LEU133     -0.1245
     66  CA        16.8730   -7.8920   14.4550 C.3   133  LEU133      0.1561
     67  C         17.9020   -9.0170   14.5570 C.2   133  LEU133      0.2260
     68  O         19.0850   -8.7410   14.6990 O.2   133  LEU133     -0.2867
     69  CB        16.4000   -7.5300   15.8680 C.3   133  LEU133      0.0270
     70  CG        15.7370   -6.1770   16.0820 C.3   133  LEU133      0.0019
     71  CD1       15.0950   -6.1600   17.4570 C.3   133  LEU133      0.0001
     72  CD2       16.7600   -5.0670   15.9440 C.3   133  LEU133      0.0001
     73  N         22.5080   -9.5840   15.7310 N.3   137  HIS137     -0.1241
     74  CA        22.8730   -9.8970   17.1000 C.3   137  HIS137      0.1621
     75  C         23.7920  -11.1080   17.1730 C.2   137  HIS137      0.2264
     76  O         23.5020  -12.1540   16.5800 O.2   137  HIS137     -0.2867
     77  CB        21.6240  -10.1210   17.9670 C.3   137  HIS137      0.0745
     78  CG        20.7870   -8.8910   18.1390 C.ar  137  HIS137      0.0817
     79  ND1       19.4720   -8.9380   18.5490 N.ar  137  HIS137     -0.2268
     80  CD2       21.0740   -7.5800   17.9370 C.ar  137  HIS137      0.1154
     81  CE1       18.9900   -7.7090   18.6090 C.ar  137  HIS137      0.1986
     82  NE2       19.9410   -6.8680   18.2400 N.ar  137  HIS137     -0.2212
     83  N         17.5030  -11.8360   24.3500 N.3   145  PHE145     -0.1241
     84  CA        16.1390  -11.7400   23.8050 C.3   145  PHE145      0.1605
     85  C         15.2510  -12.9480   24.1700 C.2   145  PHE145      0.2264
     86  O         14.0830  -12.7820   24.5490 O.2   145  PHE145     -0.2867
     87  CB        16.1080  -11.5330   22.2870 C.3   145  PHE145      0.0534
     88  CG        14.7260  -11.7540   21.6970 C.ar  145  PHE145     -0.0203
     89  CD1       13.7820  -10.7260   21.6890 C.ar  145  PHE145     -0.0042
     90  CD2       14.3420  -13.0140   21.2320 C.ar  145  PHE145     -0.0042
     91  CE1       12.4960  -10.9360   21.1900 C.ar  145  PHE145     -0.0003
     92  CE2       13.0540  -13.2330   20.7340 C.ar  145  PHE145     -0.0003
     93  CZ        12.1330  -12.1910   20.7130 C.ar  145  PHE145     -0.0000
     94  N         26.0970   -7.2950   17.0240 N.3   205  VAL205     -0.1245
     95  CA        26.4500   -6.7590   18.3350 C.3   205  VAL205      0.1561
     96  C         26.4870   -7.8120   19.4310 C.2   205  VAL205      0.2260
     97  O         25.7750   -8.8200   19.4030 O.2   205  VAL205     -0.2867
     98  CB        25.5930   -5.5160   18.7620 C.3   205  VAL205      0.0252
     99  CG1       25.8460   -4.3390   17.8090 C.3   205  VAL205      0.0019
    100  CG2       24.1170   -5.8470   18.8660 C.3   205  VAL205      0.0019
@<TRIPOS>BOND
     1    36    37    1
     2    54    55    1
     3    65    66    1
     4    37    38    1
     5    37    40    1
     6    38    39    2
     7    66    67    1
     8    66    69    1
     9    44    42   ar
    10    44    45   ar
    11    67    68    2
    12    42    41   ar
    13    55    56    1
    14    55    58    1
    15    50    51    1
    16    45    47   ar
    17    45    43   ar
    18    41    40    1
    19    41    43   ar
    20    47    49   ar
    21    56    57    2
    22    43    46   ar
    23    49    48   ar
    24    52    51    1
    25    52    53    2
    26    46    48   ar
    27    73    74    1
    28    58    59    1
    29    69    70    1
    30    72    70    1
    31    70    71    1
    32    76    75    2
    33    59    60   ar
    34    59    61   ar
    35    60    62   ar
    36    94    95    1
    37    74    75    1
    38    74    77    1
    39    61    63   ar
    40    99    98    1
    41    62    64   ar
    42    80    78   ar
    43    80    82   ar
    44    77    78    1
    45    78    79   ar
    46    82    81   ar
    47    95    98    1
    48    95    96    1
    49    79    81   ar
    50    63    64   ar
    51    98   100    1
    52    34    32    1
    53    97    96    2
    54    31    30    2
    55    27    25   ar
    56    33    35    1
    57    33    32    1
    58    32    29    1
    59    29    30    1
    60    29    28    1
    61    23    22    2
    62    25    26   ar
    63    25    24    1
    64    93    92   ar
    65    93    91   ar
    66    92    90   ar
    67    91    89   ar
    68    90    88   ar
    69    22    28   am
    70    22    21    1
    71    89    88   ar
    72    88    87    1
    73    11    10   ar
    74    11     9   ar
    75    10     8   ar
    76    24    21    1
    77    87    84    1
    78    21    20    1
    79     9     7   ar
    80    15    14    2
    81    18    16    1
    82     8     6   ar
    83    84    85    1
    84    84    83    1
    85     7     6   ar
    86    14    13    1
    87    85    86    2
    88     6     5    1
    89    16    17    1
    90    16    13    1
    91    19    17    1
    92    13    12    1
    93     1     2    1
    94     5     2    1
    95     2     3    1
    96     3     4    2
