@<TRIPOS>MOLECULE
tmp/2euoA01.pdb
 92 89 0 0 0
SMALL
GASTEIGER

@<TRIPOS>ATOM
      1  N         -3.7900   72.8020   18.6510 N.3   172  HIS172     -0.1241
      2  CA        -4.7620   72.0490   17.8600 C.3   172  HIS172      0.1621
      3  C         -4.1740   70.7590   17.2490 C.2   172  HIS172      0.2264
      4  O         -4.8680   70.0170   16.5880 O.2   172  HIS172     -0.2867
      5  CB        -5.4390   72.9530   16.8180 C.3   172  HIS172      0.0745
      6  CG        -6.5810   73.7450   17.3840 C.ar  172  HIS172      0.0817
      7  ND1       -7.2860   74.6690   16.6450 N.ar  172  HIS172     -0.2268
      8  CD2       -7.1400   73.7450   18.6220 C.ar  172  HIS172      0.1154
      9  CE1       -8.2490   75.1850   17.3970 C.ar  172  HIS172      0.1986
     10  NE2       -8.1960   74.6250   18.5920 N.ar  172  HIS172     -0.2212
     11  N         -3.4640   68.6320   19.4110 N.3   174  LEU174     -0.1231
     12  CA        -3.8790   67.7770   20.5380 C.3   174  LEU174      0.1693
     13  C         -5.3460   67.3870   20.4530 C.2   174  LEU174      0.2593
     14  O         -6.2170   68.2240   20.1790 O.2   174  LEU174     -0.2718
     15  CB        -3.6270   68.5060   21.8870 C.3   174  LEU174      0.0284
     16  CG        -2.1920   69.0140   22.1210 C.3   174  LEU174      0.0019
     17  CD1       -2.1320   69.8960   23.3110 C.3   174  LEU174      0.0001
     18  CD2       -1.2620   67.8190   22.2970 C.3   174  LEU174      0.0001
     19  N         -5.6320   66.1300   20.7500 N.am  175  GLY175     -0.1942
     20  CA        -7.0260   65.7660   20.9570 C.3   175  GLY175      0.2014
     21  C         -7.7770   65.6670   19.6430 C.2   175  GLY175      0.2639
     22  O         -7.2410   65.1930   18.6470 O.2   175  GLY175     -0.2714
     23  N         -9.0300   66.1150   19.6340 N.am  176  LYS176     -0.1963
     24  CA        -9.7950   66.1090   18.3730 C.3   176  LYS176      0.1728
     25  C        -11.0060   66.9930   18.5090 C.2   176  LYS176      0.2616
     26  O        -11.3630   67.4010   19.6160 O.2   176  LYS176     -0.2715
     27  CB       -10.2330   64.6780   17.9710 C.3   176  LYS176      0.0311
     28  CG       -11.1810   64.0480   18.9660 C.3   176  LYS176      0.0038
     29  CD       -11.4690   62.5480   18.7180 C.3   176  LYS176      0.0206
     30  CE       -12.2990   62.2850   17.4450 C.3   176  LYS176      0.1093
     31  NZ       -13.6560   62.8440   17.5500 N.3   176  LYS176     -0.1314
     32  N        -11.6080   67.3180   17.3660 N.am  177  THR177     -0.1951
     33  CA       -12.9550   67.8860   17.3970 C.3   177  THR177      0.1897
     34  C        -13.9670   66.7490   17.4700 C.2   177  THR177      0.2313
     35  O        -13.7230   65.6690   16.9340 O.2   177  THR177     -0.2863
     36  CB       -13.2300   68.7980   16.1850 C.3   177  THR177      0.1794
     37  OG1      -13.0950   68.0570   14.9580 O.3   177  THR177     -0.2208
     38  CG2      -12.1550   69.9340   16.0920 C.3   177  THR177      0.0378
     39  N         -9.4040   64.6040   14.1530 N.3   187  PRO187     -0.2102
     40  CA        -8.1250   65.0600   14.7330 C.3   187  PRO187      0.1504
     41  C         -7.3630   65.9640   13.7660 C.2   187  PRO187      0.2576
     42  O         -7.6710   65.9550   12.5530 O.2   187  PRO187     -0.2718
     43  CB        -7.3890   63.7520   14.9570 C.3   187  PRO187      0.0282
     44  CG        -7.7790   62.9320   13.7680 C.3   187  PRO187      0.0208
     45  CD        -9.2570   63.2870   13.4790 C.3   187  PRO187      0.0893
     46  N         -6.3900   66.7310   14.2700 N.am  188  GLY188     -0.1957
     47  CA        -5.5480   67.5420   13.4200 C.3   188  GLY188      0.1869
     48  C         -4.3080   66.8390   12.8850 C.2   188  GLY188      0.2309
     49  O         -3.5560   67.4190   12.0870 O.2   188  GLY188     -0.2863
     50  N          0.8580   70.3360   14.0340 N.3   199  PHE199     -0.1241
     51  CA        -0.1840   71.2060   13.5040 C.3   199  PHE199      0.1605
     52  C          0.3290   72.0060   12.3040 C.2   199  PHE199      0.2264
     53  O         -0.3160   72.0770   11.2780 O.2   199  PHE199     -0.2867
     54  CB        -0.6390   72.1280   14.6180 C.3   199  PHE199      0.0534
     55  CG        -1.6530   73.1760   14.2040 C.ar  199  PHE199     -0.0203
     56  CD1       -3.0170   72.8790   14.0480 C.ar  199  PHE199     -0.0042
     57  CD2       -1.2300   74.5090   14.0440 C.ar  199  PHE199     -0.0042
     58  CE1       -3.9080   73.8960   13.7130 C.ar  199  PHE199     -0.0003
     59  CE2       -2.0980   75.5250   13.7010 C.ar  199  PHE199     -0.0003
     60  CZ        -3.4620   75.2310   13.5540 C.ar  199  PHE199     -0.0000
     61  N         -8.2030   66.8990    9.9600 N.3   227  MET227     -0.1230
     62  CA        -9.0600   68.0570    9.6870 C.3   227  MET227      0.1702
     63  C         -8.4020   69.3370   10.2180 C.2   227  MET227      0.2592
     64  O         -7.5250   69.2840   11.1130 O.2   227  MET227     -0.2718
     65  CB       -10.4890   67.8540   10.2670 C.3   227  MET227      0.0401
     66  CG       -10.5480   67.8020   11.8220 C.3   227  MET227      0.0596
     67  SD       -10.5080   69.4140   12.6270 S.3   227  MET227     -0.1393
     68  CE       -12.1790   70.0300   12.2160 C.3   227  MET227      0.0692
     69  N         -8.8740   70.4580    9.6610 N.am  228  MET228     -0.1965
     70  CA        -8.5920   71.8080   10.1420 C.3   228  MET228      0.1736
     71  C         -9.8850   72.6160   10.1370 C.2   228  MET228      0.2616
     72  O        -10.6300   72.5190    9.1990 O.2   228  MET228     -0.2715
     73  CB        -7.6070   72.4830    9.1960 C.3   228  MET228      0.0427
     74  CG        -6.1510   71.9450    9.2570 C.3   228  MET228      0.0599
     75  SD        -5.3090   72.3080   10.8580 S.3   228  MET228     -0.1393
     76  CE        -3.9300   71.0960   10.8200 C.3   228  MET228      0.0692
     77  N        -10.0670   73.4520   11.1620 N.am  229  LEU229     -0.1977
     78  CA       -11.1910   74.3920   11.1980 C.3   229  LEU229      0.1596
     79  C        -10.9300   75.5030   10.2110 C.2   229  LEU229      0.2287
     80  O         -9.8030   75.7710    9.8970 O.2   229  LEU229     -0.2864
     81  CB       -11.2620   75.0180   12.5910 C.3   229  LEU229      0.0297
     82  CG       -11.5770   74.0400   13.7340 C.3   229  LEU229      0.0022
     83  CD1      -11.3960   74.6850   15.0880 C.3   229  LEU229      0.0001
     84  CD2      -13.0240   73.4710   13.6570 C.3   229  LEU229      0.0001
     85  N         -8.2850   77.6240   11.6860 N.3   232  ASP232     -0.1239
     86  CA        -6.9450   77.0360   11.5730 C.3   232  ASP232      0.1674
     87  C         -6.4060   77.2800   10.1750 C.2   232  ASP232      0.2266
     88  O         -5.2900   77.6970    9.9850 O.2   232  ASP232     -0.2867
     89  CB        -6.9890   75.5120   11.7430 C.3   232  ASP232      0.1410
     90  CG        -7.4230   75.0800   13.1090 C.2   232  ASP232      0.3668
     91  OD1       -7.0090   75.7010   14.1400 O.co2 232  ASP232     -0.2456
     92  OD2       -8.1280   74.0710   13.2480 O.co2 232  ASP232     -0.2456
@<TRIPOS>BOND
     1    73    74    1
     2    73    70    1
     3    72    71    2
     4    74    75    1
     5    69    70    1
     6    69    63   am
     7    62    61    1
     8    62    63    1
     9    62    65    1
    10    80    79    2
    11    88    87    2
    12    71    70    1
    13    71    77   am
    14    87    86    1
    15    79    78    1
    16    63    64    2
    17    65    66    1
    18    76    75    1
    19    77    78    1
    20    78    81    1
    21    53    52    2
    22    86    85    1
    23    86    89    1
    24    89    90    1
    25    66    67    1
    26    49    48    2
    27    68    67    1
    28    52    51    1
    29    42    41    2
    30    81    82    1
    31    48    47    1
    32    90    92   ar
    33    90    91   ar
    34    47    46    1
    35    45    44    1
    36    45    39    1
    37    51    50    1
    38    51    54    1
    39    60    59   ar
    40    60    58   ar
    41    84    82    1
    42    59    57   ar
    43    58    56   ar
    44    82    83    1
    45    41    46   am
    46    41    40    1
    47    44    43    1
    48    57    55   ar
    49    56    55   ar
    50    39    40    1
    51    55    54    1
    52    40    43    1
    53    37    36    1
    54    38    36    1
    55    36    33    1
    56     4     3    2
    57     7     6   ar
    58     7     9   ar
    59     5     6    1
    60     5     2    1
    61    35    34    2
    62     3     2    1
    63    32    33    1
    64    32    25   am
    65     6     8   ar
    66    33    34    1
    67     9    10   ar
    68    30    31    1
    69    30    29    1
    70     2     1    1
    71    27    24    1
    72    27    28    1
    73    24    25    1
    74    24    23    1
    75    25    26    2
    76    10     8   ar
    77    22    21    2
    78    29    28    1
    79    11    12    1
    80    23    21   am
    81    21    20    1
    82    14    13    2
    83    13    12    1
    84    13    19   am
    85    12    15    1
    86    19    20    1
    87    15    16    1
    88    16    18    1
    89    16    17    1
