@<TRIPOS>MOLECULE
tmp/2eupA01.pdb
 85 79 0 0 0
SMALL
GASTEIGER

@<TRIPOS>ATOM
      1  N         -3.8050   72.6000   18.7480 N.3   173  HIS173     -0.1241
      2  CA        -4.7530   71.8350   17.9560 C.3   173  HIS173      0.1621
      3  C         -4.2080   70.5410   17.3380 C.2   173  HIS173      0.2264
      4  O         -4.9760   69.8080   16.7090 O.2   173  HIS173     -0.2867
      5  CB        -5.4390   72.7240   16.9230 C.3   173  HIS173      0.0745
      6  CG        -6.5400   73.5500   17.5070 C.ar  173  HIS173      0.0817
      7  ND1       -7.1770   74.5560   16.8160 N.ar  173  HIS173     -0.2268
      8  CD2       -7.1350   73.4880   18.7230 C.ar  173  HIS173      0.1154
      9  CE1       -8.1230   75.0720   17.5790 C.ar  173  HIS173      0.1986
     10  NE2       -8.1290   74.4360   18.7370 N.ar  173  HIS173     -0.2212
     11  N         -3.4560   68.4450   19.4720 N.3   175  LEU175     -0.1245
     12  CA        -3.9490   67.6290   20.5750 C.3   175  LEU175      0.1561
     13  C         -5.4130   67.2860   20.4080 C.2   175  LEU175      0.2260
     14  O         -6.2140   68.0970   19.9560 O.2   175  LEU175     -0.2867
     15  CB        -3.7780   68.3860   21.9070 C.3   175  LEU175      0.0270
     16  CG        -2.3690   68.8180   22.2740 C.3   175  LEU175      0.0019
     17  CD1       -2.4460   69.6970   23.4980 C.3   175  LEU175      0.0001
     18  CD2       -1.4390   67.6080   22.4630 C.3   175  LEU175      0.0001
     19  N         -9.1160   66.0690   19.6910 N.3   177  LYS177     -0.1231
     20  CA        -9.9210   66.0480   18.4590 C.3   177  LYS177      0.1693
     21  C        -11.1410   66.9220   18.5950 C.2   177  LYS177      0.2592
     22  O        -11.5660   67.2620   19.7000 O.2   177  LYS177     -0.2718
     23  CB       -10.3410   64.6040   18.0880 C.3   177  LYS177      0.0285
     24  CG       -11.2830   63.9560   19.0710 C.3   177  LYS177      0.0035
     25  CD       -11.5550   62.4860   18.7400 C.3   177  LYS177      0.0206
     26  CE       -12.4550   62.2720   17.4990 C.3   177  LYS177      0.1093
     27  NZ       -13.8060   62.8030   17.6520 N.3   177  LYS177     -0.1314
     28  N        -11.7320   67.2650   17.4440 N.am  178  THR178     -0.1953
     29  CA       -13.0780   67.8330   17.4500 C.3   178  THR178      0.1897
     30  C        -14.0700   66.6910   17.5270 C.2   178  THR178      0.2313
     31  O        -13.8250   65.6050   17.0040 O.2   178  THR178     -0.2863
     32  CB       -13.3540   68.7330   16.2250 C.3   178  THR178      0.1794
     33  OG1      -13.2160   67.9820   15.0020 O.3   178  THR178     -0.2208
     34  CG2      -12.2990   69.8650   16.1440 C.3   178  THR178      0.0378
     35  N        -13.1110   65.2110   14.0110 N.3   187  GLY187     -0.1225
     36  CA       -11.8450   64.6360   13.5860 C.3   187  GLY187      0.1811
     37  C        -10.6050   65.1870   14.2740 C.2   187  GLY187      0.2280
     38  O        -10.6360   66.2640   14.8690 O.2   187  GLY187     -0.2866
     39  N         -6.4600   66.5370   14.2950 N.3   189  GLY189     -0.1225
     40  CA        -5.5630   67.3360   13.4900 C.3   189  GLY189      0.1811
     41  C         -4.3560   66.6190   12.9240 C.2   189  GLY189      0.2280
     42  O         -3.6260   67.1900   12.1210 O.2   189  GLY189     -0.2866
     43  N          0.7880   70.1600   14.0580 N.3   200  PHE200     -0.1241
     44  CA        -0.2780   70.9930   13.5090 C.3   200  PHE200      0.1605
     45  C          0.2440   71.8010   12.3080 C.2   200  PHE200      0.2264
     46  O         -0.4030   71.8690   11.2800 O.2   200  PHE200     -0.2867
     47  CB        -0.7820   71.8860   14.6280 C.3   200  PHE200      0.0534
     48  CG        -1.7800   72.9470   14.2130 C.ar  200  PHE200     -0.0203
     49  CD1       -3.1280   72.6410   14.0620 C.ar  200  PHE200     -0.0042
     50  CD2       -1.3590   74.2760   14.0520 C.ar  200  PHE200     -0.0042
     51  CE1       -4.0390   73.6350   13.7390 C.ar  200  PHE200     -0.0003
     52  CE2       -2.2410   75.2610   13.7320 C.ar  200  PHE200     -0.0003
     53  CZ        -3.5840   74.9480   13.5740 C.ar  200  PHE200     -0.0000
     54  N         -8.2990   66.7610    9.9780 N.3   228  MET228     -0.1230
     55  CA        -9.1450   67.9180    9.7020 C.3   228  MET228      0.1702
     56  C         -8.5130   69.2030   10.2200 C.2   228  MET228      0.2592
     57  O         -7.6750   69.1830   11.1400 O.2   228  MET228     -0.2718
     58  CB       -10.5520   67.7410   10.2860 C.3   228  MET228      0.0401
     59  CG       -10.6300   67.7140   11.8050 C.3   228  MET228      0.0596
     60  SD       -10.7090   69.3680   12.5750 S.3   228  MET228     -0.1393
     61  CE       -12.3110   69.9300   12.0960 C.3   228  MET228      0.0692
     62  N         -8.9250   70.3060    9.6130 N.am  229  MET229     -0.1965
     63  CA        -8.6890   71.6700   10.0830 C.3   229  MET229      0.1736
     64  C        -10.0010   72.4420   10.1680 C.2   229  MET229      0.2616
     65  O        -10.8150   72.3840    9.2600 O.2   229  MET229     -0.2715
     66  CB        -7.7060   72.4040    9.1660 C.3   229  MET229      0.0427
     67  CG        -6.2920   71.8600    9.1660 C.3   229  MET229      0.0599
     68  SD        -5.4410   72.2520   10.7130 S.3   229  MET229     -0.1393
     69  CE        -4.1420   70.9940   10.7470 C.3   229  MET229      0.0692
     70  N        -10.1750   73.1670   11.2620 N.am  230  LEU230     -0.1977
     71  CA       -11.2680   74.1300   11.3780 C.3   230  LEU230      0.1596
     72  C        -10.9910   75.2640   10.4010 C.2   230  LEU230      0.2287
     73  O         -9.8340   75.5260   10.0680 O.2   230  LEU230     -0.2864
     74  CB       -11.2700   74.7210   12.7820 C.3   230  LEU230      0.0297
     75  CG       -11.5600   73.7380   13.9170 C.3   230  LEU230      0.0022
     76  CD1      -11.2100   74.3840   15.2360 C.3   230  LEU230      0.0001
     77  CD2      -13.0240   73.3040   13.9450 C.3   230  LEU230      0.0001
     78  N         -8.4100   77.4100   11.8040 N.3   233  ASP233     -0.1239
     79  CA        -7.0740   76.8120   11.6790 C.3   233  ASP233      0.1674
     80  C         -6.4970   77.0710   10.2860 C.2   233  ASP233      0.2266
     81  O         -5.3430   77.4540   10.1210 O.2   233  ASP233     -0.2867
     82  CB        -7.1260   75.2910   11.8850 C.3   233  ASP233      0.1410
     83  CG        -7.4500   74.8760   13.2890 C.2   233  ASP233      0.3668
     84  OD1       -7.0840   75.6080   14.2570 O.co2 233  ASP233     -0.2456
     85  OD2       -8.0480   73.7770   13.4880 O.co2 233  ASP233     -0.2456
@<TRIPOS>BOND
     1    67    66    1
     2    67    68    1
     3    66    63    1
     4    65    64    2
     5    62    63    1
     6    62    56   am
     7    55    54    1
     8    55    56    1
     9    55    58    1
    10    73    72    2
    11    63    64    1
    12    81    80    2
    13    64    70   am
    14    56    57    2
    15    80    79    1
    16    58    59    1
    17    72    71    1
    18    68    69    1
    19    70    71    1
    20    46    45    2
    21    71    74    1
    22    79    78    1
    23    79    82    1
    24    59    60    1
    25    82    83    1
    26    61    60    1
    27    42    41    2
    28    45    44    1
    29    74    75    1
    30    41    40    1
    31    83    85   ar
    32    83    84   ar
    33    40    39    1
    34    44    43    1
    35    44    47    1
    36    53    52   ar
    37    53    51   ar
    38    36    35    1
    39    36    37    1
    40    52    50   ar
    41    51    49   ar
    42    75    77    1
    43    75    76    1
    44    50    48   ar
    45    49    48   ar
    46    48    47    1
    47    37    38    2
    48    33    32    1
    49    34    32    1
    50    32    29    1
    51     4     3    2
    52     7     6   ar
    53     7     9   ar
    54     5     6    1
    55     5     2    1
    56    31    30    2
    57     3     2    1
    58    28    29    1
    59    28    21   am
    60    29    30    1
    61    26    27    1
    62    26    25    1
    63     6     8   ar
    64     9    10   ar
    65     2     1    1
    66    23    20    1
    67    23    24    1
    68    20    21    1
    69    20    19    1
    70    21    22    2
    71     8    10   ar
    72    25    24    1
    73    11    12    1
    74    14    13    2
    75    13    12    1
    76    12    15    1
    77    15    16    1
    78    16    18    1
    79    16    17    1
