@<TRIPOS>MOLECULE
tmp/2euqA01.pdb
 96 93 0 0 0
SMALL
GASTEIGER

@<TRIPOS>ATOM
      1  N         -3.6980   73.2490   19.1520 N.3   173  HIS173     -0.1241
      2  CA        -4.6150   72.4290   18.3650 C.3   173  HIS173      0.1621
      3  C         -3.9660   71.1700   17.7870 C.2   173  HIS173      0.2264
      4  O         -4.6680   70.3270   17.2430 O.2   173  HIS173     -0.2867
      5  CB        -5.3030   73.2470   17.2750 C.3   173  HIS173      0.0745
      6  CG        -6.4220   74.0820   17.8030 C.ar  173  HIS173      0.0817
      7  ND1       -7.1670   74.9260   17.0130 N.ar  173  HIS173     -0.2268
      8  CD2       -6.9340   74.1790   19.0520 C.ar  173  HIS173      0.1154
      9  CE1       -8.1100   75.4830   17.7540 C.ar  173  HIS173      0.1986
     10  NE2       -7.9790   75.0620   19.0000 N.ar  173  HIS173     -0.2212
     11  N         -3.2030   69.0490   19.7850 N.3   175  LEU175     -0.1231
     12  CA        -3.7940   68.1810   20.7940 C.3   175  LEU175      0.1693
     13  C         -5.2680   67.8710   20.5480 C.2   175  LEU175      0.2593
     14  O         -6.0360   68.7040   20.0630 O.2   175  LEU175     -0.2718
     15  CB        -3.6870   68.8730   22.1540 C.3   175  LEU175      0.0284
     16  CG        -2.2930   69.3030   22.6170 C.3   175  LEU175      0.0019
     17  CD1       -2.4000   70.1400   23.8670 C.3   175  LEU175      0.0001
     18  CD2       -1.4040   68.0890   22.8540 C.3   175  LEU175      0.0001
     19  N         -5.6800   66.6860   20.9660 N.am  176  GLY176     -0.1942
     20  CA        -7.0840   66.3720   21.0370 C.3   176  GLY176      0.2014
     21  C         -7.7400   66.3150   19.6790 C.2   176  GLY176      0.2639
     22  O         -7.1540   65.8570   18.6950 O.2   176  GLY176     -0.2714
     23  N         -8.9880   66.7380   19.6530 N.am  177  LYS177     -0.1963
     24  CA        -9.7790   66.7340   18.4270 C.3   177  LYS177      0.1728
     25  C        -11.0000   67.6000   18.5910 C.2   177  LYS177      0.2616
     26  O        -11.3600   67.9880   19.7030 O.2   177  LYS177     -0.2715
     27  CB       -10.2240   65.3090   18.0550 C.3   177  LYS177      0.0311
     28  CG       -11.1680   64.6630   19.0580 C.3   177  LYS177      0.0038
     29  CD       -11.4500   63.1840   18.7600 C.3   177  LYS177      0.0206
     30  CE       -12.3340   62.9700   17.5260 C.3   177  LYS177      0.1093
     31  NZ       -13.7460   63.4360   17.6680 N.3   177  LYS177     -0.1314
     32  N        -11.6370   67.9000   17.4630 N.am  178  THR178     -0.1951
     33  CA       -12.9830   68.4460   17.4740 C.3   178  THR178      0.1897
     34  C        -13.9840   67.2990   17.5430 C.2   178  THR178      0.2313
     35  O        -13.7520   66.2210   16.9930 O.2   178  THR178     -0.2863
     36  CB       -13.2360   69.3670   16.2510 C.3   178  THR178      0.1794
     37  OG1      -13.1680   68.6090   15.0300 O.3   178  THR178     -0.2208
     38  CG2      -12.1600   70.4590   16.1560 C.3   178  THR178      0.0378
     39  N        -13.0710   65.8230   14.0560 N.3   187  GLY187     -0.1210
     40  CA       -11.8470   65.1760   13.6260 C.3   187  GLY187      0.1940
     41  C        -10.6190   65.6910   14.3380 C.2   187  GLY187      0.2454
     42  O        -10.6200   66.8110   14.8710 O.2   187  GLY187     -0.2732
     43  N         -9.5600   64.8860   14.3390 N.am  188  PRO188     -0.2717
     44  CA        -8.2630   65.3040   14.8720 C.3   188  PRO188      0.1535
     45  C         -7.5000   66.1020   13.8160 C.2   188  PRO188      0.2599
     46  O         -7.8600   66.0560   12.6400 O.2   188  PRO188     -0.2715
     47  CB        -7.5830   63.9690   15.1320 C.3   188  PRO188      0.0310
     48  CG        -8.0570   63.1230   13.9940 C.3   188  PRO188      0.0237
     49  CD        -9.5050   63.5100   13.8060 C.3   188  PRO188      0.0939
     50  N         -6.4420   66.7930   14.2100 N.am  189  GLY189     -0.1955
     51  CA        -5.5930   67.5140   13.2790 C.3   189  GLY189      0.1869
     52  C         -4.3520   66.7840   12.8110 C.2   189  GLY189      0.2309
     53  O         -3.6140   67.3010   11.9840 O.2   189  GLY189     -0.2863
     54  N          0.8500   70.7970   14.4440 N.3   200  PHE200     -0.1241
     55  CA        -0.1650   71.6890   13.8720 C.3   200  PHE200      0.1605
     56  C          0.3550   72.4270   12.6450 C.2   200  PHE200      0.2264
     57  O         -0.3040   72.4840   11.6050 O.2   200  PHE200     -0.2867
     58  CB        -0.5970   72.6730   14.9500 C.3   200  PHE200      0.0534
     59  CG        -1.5810   73.7290   14.5060 C.ar  200  PHE200     -0.0203
     60  CD1       -2.9150   73.4280   14.2900 C.ar  200  PHE200     -0.0042
     61  CD2       -1.1710   75.0460   14.3920 C.ar  200  PHE200     -0.0042
     62  CE1       -3.8100   74.4180   13.9300 C.ar  200  PHE200     -0.0003
     63  CE2       -2.0670   76.0410   14.0360 C.ar  200  PHE200     -0.0003
     64  CZ        -3.3910   75.7260   13.8060 C.ar  200  PHE200     -0.0000
     65  N         -8.3170   67.1870   10.1010 N.3   228  MET228     -0.1230
     66  CA        -9.1020   68.3750    9.8040 C.3   228  MET228      0.1702
     67  C         -8.4850   69.6150   10.4070 C.2   228  MET228      0.2592
     68  O         -7.7090   69.5550   11.3750 O.2   228  MET228     -0.2718
     69  CB       -10.5530   68.2380   10.2740 C.3   228  MET228      0.0401
     70  CG       -10.7470   68.1890   11.7770 C.3   228  MET228      0.0596
     71  SD       -10.8310   69.8230   12.5860 S.3   228  MET228     -0.1393
     72  CE       -12.4160   70.4440   12.0140 C.3   228  MET228      0.0692
     73  N         -8.8370   70.7370    9.7930 N.am  229  MET229     -0.1965
     74  CA        -8.5360   72.0710   10.2900 C.3   229  MET229      0.1736
     75  C         -9.8210   72.8910   10.3060 C.2   229  MET229      0.2616
     76  O        -10.6080   72.8580    9.3580 O.2   229  MET229     -0.2715
     77  CB        -7.4780   72.7590    9.4200 C.3   229  MET229      0.0427
     78  CG        -6.1030   72.1040    9.5000 C.3   229  MET229      0.0599
     79  SD        -5.3100   72.4680   11.0790 S.3   229  MET229     -0.1393
     80  CE        -3.9400   71.3040   11.0290 C.3   229  MET229      0.0692
     81  N        -10.0230   73.6290   11.3860 N.am  230  LEU230     -0.1977
     82  CA       -11.1190   74.5860   11.4750 C.3   230  LEU230      0.1596
     83  C        -10.8700   75.7180   10.4970 C.2   230  LEU230      0.2287
     84  O         -9.7320   75.9730   10.1380 O.2   230  LEU230     -0.2864
     85  CB       -11.1760   75.1840   12.8750 C.3   230  LEU230      0.0297
     86  CG       -11.4930   74.2140   14.0100 C.3   230  LEU230      0.0022
     87  CD1      -11.1000   74.8290   15.3540 C.3   230  LEU230      0.0001
     88  CD2      -12.9680   73.8230   13.9870 C.3   230  LEU230      0.0001
     89  N         -8.2690   77.7470   12.0480 N.3   233  ASP233     -0.1239
     90  CA        -6.9430   77.1230   11.9120 C.3   233  ASP233      0.1674
     91  C         -6.3490   77.4720   10.5430 C.2   233  ASP233      0.2266
     92  O         -5.1840   77.8860   10.4230 O.2   233  ASP233     -0.2867
     93  CB        -7.0380   75.5900   11.9880 C.3   233  ASP233      0.1410
     94  CG        -7.4060   75.0440   13.3410 C.2   233  ASP233      0.3668
     95  OD1       -7.1930   75.6950   14.3890 O.co2 233  ASP233     -0.2456
     96  OD2       -7.8970   73.8920   13.4070 O.co2 233  ASP233     -0.2456
@<TRIPOS>BOND
     1    76    75    2
     2    77    78    1
     3    77    74    1
     4    78    79    1
     5    73    74    1
     6    73    67   am
     7    66    65    1
     8    66    69    1
     9    66    67    1
    10    84    83    2
    11    69    70    1
    12    74    75    1
    13    75    81   am
    14    67    68    2
    15    92    91    2
    16    83    82    1
    17    91    90    1
    18    80    79    1
    19    81    82    1
    20    82    85    1
    21    57    56    2
    22    70    71    1
    23    90    93    1
    24    90    89    1
    25    53    52    2
    26    93    94    1
    27    72    71    1
    28    46    45    2
    29    56    55    1
    30    52    51    1
    31    85    86    1
    32    51    50    1
    33    94    96   ar
    34    94    95   ar
    35    40    39    1
    36    40    41    1
    37    64    62   ar
    38    64    63   ar
    39    49    48    1
    40    49    43    1
    41    45    50   am
    42    45    44    1
    43    55    54    1
    44    55    58    1
    45    62    60   ar
    46    88    86    1
    47    48    47    1
    48    86    87    1
    49    63    61   ar
    50    60    59   ar
    51    41    43   am
    52    41    42    2
    53    43    44    1
    54    61    59   ar
    55    59    58    1
    56    44    47    1
    57    37    36    1
    58    38    36    1
    59    36    33    1
    60    35    34    2
    61     7     9   ar
    62     7     6   ar
    63     4     3    2
    64     5     6    1
    65     5     2    1
    66    32    33    1
    67    32    25   am
    68    33    34    1
    69    30    31    1
    70    30    29    1
    71     9    10   ar
    72     3     2    1
    73     6     8   ar
    74    27    24    1
    75    27    28    1
    76     2     1    1
    77    24    25    1
    78    24    23    1
    79    25    26    2
    80    22    21    2
    81    29    28    1
    82    10     8   ar
    83    23    21   am
    84    21    20    1
    85    11    12    1
    86    14    13    2
    87    13    12    1
    88    13    19   am
    89    12    15    1
    90    19    20    1
    91    15    16    1
    92    16    18    1
    93    16    17    1
