@<TRIPOS>MOLECULE
tmp/2eurA01.pdb
 78 73 0 0 0
SMALL
GASTEIGER

@<TRIPOS>ATOM
      1  N         -3.9000   72.7770   18.5750 N.3   173  HIS173     -0.1241
      2  CA        -4.8590   72.0120   17.7810 C.3   173  HIS173      0.1621
      3  C         -4.2760   70.7260   17.1530 C.2   173  HIS173      0.2264
      4  O         -5.0040   69.9920   16.5000 O.2   173  HIS173     -0.2867
      5  CB        -5.5670   72.8910   16.7320 C.3   173  HIS173      0.0745
      6  CG        -6.6300   73.7600   17.3260 C.ar  173  HIS173      0.0817
      7  ND1       -7.1210   74.8840   16.7020 N.ar  173  HIS173     -0.2268
      8  CD2       -7.3740   73.6070   18.4550 C.ar  173  HIS173      0.1154
      9  CE1       -8.0580   75.4320   17.4600 C.ar  173  HIS173      0.1986
     10  NE2       -8.2460   74.6720   18.5190 N.ar  173  HIS173     -0.2212
     11  N         -3.4990   68.5990   19.3120 N.3   175  LEU175     -0.1231
     12  CA        -4.0040   67.7620   20.4060 C.3   175  LEU175      0.1693
     13  C         -5.4770   67.3840   20.2830 C.2   175  LEU175      0.2593
     14  O         -6.3200   68.1750   19.8510 O.2   175  LEU175     -0.2718
     15  CB        -3.8020   68.4960   21.7380 C.3   175  LEU175      0.0284
     16  CG        -2.3830   68.9340   22.1070 C.3   175  LEU175      0.0019
     17  CD1       -2.4240   69.8120   23.3320 C.3   175  LEU175      0.0001
     18  CD2       -1.4480   67.7390   22.3010 C.3   175  LEU175      0.0001
     19  N         -5.7880   66.1780   20.7370 N.am  176  GLY176     -0.1942
     20  CA        -7.1410   65.7540   20.9510 C.3   176  GLY176      0.2014
     21  C         -7.8990   65.6250   19.6440 C.2   176  GLY176      0.2639
     22  O         -7.3390   65.1830   18.6400 O.2   176  GLY176     -0.2714
     23  N         -9.1640   65.9910   19.6620 N.am  177  LYS177     -0.1963
     24  CA       -10.0060   65.9640   18.4700 C.3   177  LYS177      0.1728
     25  C        -11.2000   66.8840   18.6380 C.2   177  LYS177      0.2616
     26  O        -11.5670   67.2690   19.7460 O.2   177  LYS177     -0.2715
     27  CB       -10.4620   64.5260   18.1440 C.3   177  LYS177      0.0311
     28  CG       -11.5120   63.9520   19.0850 C.3   177  LYS177      0.0038
     29  CD       -11.7930   62.4590   18.7860 C.3   177  LYS177      0.0206
     30  CE       -12.5600   62.2710   17.4790 C.3   177  LYS177      0.1093
     31  NZ       -13.9390   62.8300   17.5550 N.3   177  LYS177     -0.1314
     32  N        -11.8170   67.2520   17.5090 N.am  178  THR178     -0.1951
     33  CA       -13.1320   67.8810   17.5140 C.3   178  THR178      0.1897
     34  C        -14.1680   66.7580   17.5690 C.2   178  THR178      0.2313
     35  O        -13.9430   65.6720   17.0180 O.2   178  THR178     -0.2863
     36  CB       -13.3720   68.8040   16.2930 C.3   178  THR178      0.1794
     37  OG1      -13.2600   68.0650   15.0670 O.3   178  THR178     -0.2208
     38  CG2      -12.2890   69.8770   16.2100 C.3   178  THR178      0.0378
     39  N        -13.1440   65.2920   13.9720 N.3   187  GLY187     -0.1225
     40  CA       -11.8460   64.7790   13.5620 C.3   187  GLY187      0.1811
     41  C        -10.6350   65.3540   14.2810 C.2   187  GLY187      0.2280
     42  O        -10.7220   66.4120   14.8960 O.2   187  GLY187     -0.2866
     43  N         -6.5440   66.7920   14.3810 N.3   189  GLY189     -0.1225
     44  CA        -5.6450   67.6080   13.5910 C.3   189  GLY189      0.1811
     45  C         -4.4190   66.8960   13.0730 C.2   189  GLY189      0.2280
     46  O         -3.6810   67.4430   12.2620 O.2   189  GLY189     -0.2866
     47  N         -8.3250   67.0210   10.0730 N.3   228  MET228     -0.1230
     48  CA        -9.1920   68.1640    9.8050 C.3   228  MET228      0.1702
     49  C         -8.5950   69.4470   10.3420 C.2   228  MET228      0.2592
     50  O         -7.7800   69.4290   11.2980 O.2   228  MET228     -0.2718
     51  CB       -10.5810   67.9520   10.3980 C.3   228  MET228      0.0401
     52  CG       -10.6620   67.9350   11.9120 C.3   228  MET228      0.0596
     53  SD       -10.7690   69.5540   12.6860 S.3   228  MET228     -0.1393
     54  CE       -12.3640   70.0440   12.1410 C.3   228  MET228      0.0692
     55  N         -9.0530   70.5480    9.7580 N.am  229  MET229     -0.1965
     56  CA        -8.7690   71.9040   10.2190 C.3   229  MET229      0.1736
     57  C        -10.0600   72.7050   10.1970 C.2   229  MET229      0.2616
     58  O        -10.8790   72.5630    9.2840 O.2   229  MET229     -0.2715
     59  CB        -7.7330   72.5910    9.3300 C.3   229  MET229      0.0427
     60  CG        -6.3430   71.9860    9.4050 C.3   229  MET229      0.0599
     61  SD        -5.4870   72.4010   10.9380 S.3   229  MET229     -0.1393
     62  CE        -4.1950   71.1500   10.9250 C.3   229  MET229      0.0692
     63  N        -10.2550   73.5610   11.1910 N.am  230  LEU230     -0.1977
     64  CA       -11.3650   74.5090   11.1820 C.3   230  LEU230      0.1596
     65  C        -11.0640   75.6190   10.1930 C.2   230  LEU230      0.2287
     66  O         -9.8990   75.8550    9.8650 O.2   230  LEU230     -0.2864
     67  CB       -11.5180   75.1460   12.5580 C.3   230  LEU230      0.0297
     68  CG       -11.7130   74.1880   13.7290 C.3   230  LEU230      0.0022
     69  CD1      -11.4190   74.9230   15.0480 C.3   230  LEU230      0.0001
     70  CD2      -13.1370   73.5950   13.6900 C.3   230  LEU230      0.0001
     71  N         -8.3850   77.7340   11.6620 N.3   233  ASP233     -0.1239
     72  CA        -7.0540   77.1270   11.5130 C.3   233  ASP233      0.1674
     73  C         -6.4820   77.3700   10.1260 C.2   233  ASP233      0.2266
     74  O         -5.3570   77.7870    9.9680 O.2   233  ASP233     -0.2867
     75  CB        -7.1370   75.6100   11.6890 C.3   233  ASP233      0.1410
     76  CG        -7.5380   75.1910   13.0820 C.2   233  ASP233      0.3668
     77  OD1       -7.0560   75.8020   14.0890 O.co2 233  ASP233     -0.2456
     78  OD2       -8.2550   74.1880   13.2390 O.co2 233  ASP233     -0.2456
@<TRIPOS>BOND
     1    58    57    2
     2    59    60    1
     3    59    56    1
     4    60    61    1
     5    55    56    1
     6    55    49   am
     7    48    47    1
     8    48    49    1
     9    48    51    1
    10    66    65    2
    11    74    73    2
    12    73    72    1
    13    65    64    1
    14    57    56    1
    15    57    63   am
    16    49    50    2
    17    51    52    1
    18    62    61    1
    19    64    63    1
    20    64    67    1
    21    72    71    1
    22    72    75    1
    23    75    76    1
    24    52    53    1
    25    54    53    1
    26    46    45    2
    27    67    68    1
    28    45    44    1
    29    76    78   ar
    30    76    77   ar
    31    40    39    1
    32    40    41    1
    33    44    43    1
    34    70    68    1
    35    68    69    1
    36    41    42    2
    37    37    36    1
    38    38    36    1
    39    36    33    1
    40     4     3    2
    41     7     6   ar
    42     7     9   ar
    43     5     6    1
    44     5     2    1
    45    35    34    2
    46     3     2    1
    47     6     8   ar
    48     9    10   ar
    49    30    31    1
    50    30    29    1
    51    32    33    1
    52    32    25   am
    53    33    34    1
    54     2     1    1
    55    27    24    1
    56    27    28    1
    57     8    10   ar
    58    24    25    1
    59    24    23    1
    60    25    26    2
    61    22    21    2
    62    29    28    1
    63    11    12    1
    64    21    23   am
    65    21    20    1
    66    14    13    2
    67    13    12    1
    68    13    19   am
    69    12    15    1
    70    19    20    1
    71    15    16    1
    72    16    18    1
    73    16    17    1
