@<TRIPOS>MOLECULE
tmp/2eusA01.pdb
 89 84 0 0 0
SMALL
GASTEIGER

@<TRIPOS>ATOM
      1  N         -3.7270   73.1950   19.1690 N.3   173  HIS173     -0.1241
      2  CA        -4.6480   72.3560   18.3860 C.3   173  HIS173      0.1621
      3  C         -4.0180   71.0910   17.8490 C.2   173  HIS173      0.2264
      4  O         -4.7710   70.2340   17.3170 O.2   173  HIS173     -0.2867
      5  CB        -5.3860   73.1380   17.2720 C.3   173  HIS173      0.0745
      6  CG        -6.4870   74.0010   17.8020 C.ar  173  HIS173      0.0817
      7  ND1       -7.1000   74.9810   17.0540 N.ar  173  HIS173     -0.2268
      8  CD2       -7.1400   73.9690   18.9920 C.ar  173  HIS173      0.1154
      9  CE1       -8.0330   75.5630   17.7910 C.ar  173  HIS173      0.1986
     10  NE2       -8.0810   74.9690   18.9730 N.ar  173  HIS173     -0.2212
     11  N         -3.2240   69.0240   19.8900 N.3   175  LEU175     -0.1231
     12  CA        -3.7890   68.1930   20.9370 C.3   175  LEU175      0.1693
     13  C         -5.2740   67.8680   20.7100 C.2   175  LEU175      0.2593
     14  O         -6.1100   68.7330   20.3740 O.2   175  LEU175     -0.2718
     15  CB        -3.6370   68.9130   22.2780 C.3   175  LEU175      0.0284
     16  CG        -2.2470   69.3080   22.7270 C.3   175  LEU175      0.0019
     17  CD1       -2.3460   70.1420   23.9800 C.3   175  LEU175      0.0001
     18  CD2       -1.3450   68.0850   22.9250 C.3   175  LEU175      0.0001
     19  N         -5.6510   66.6290   21.0020 N.am  176  GLY176     -0.1942
     20  CA        -7.0530   66.3050   21.0980 C.3   176  GLY176      0.2014
     21  C         -7.7020   66.2430   19.7310 C.2   176  GLY176      0.2639
     22  O         -7.0920   65.8300   18.7400 O.2   176  GLY176     -0.2714
     23  N         -8.9480   66.6830   19.7070 N.am  177  LYS177     -0.1963
     24  CA        -9.7510   66.6860   18.4920 C.3   177  LYS177      0.1728
     25  C        -11.0120   67.5270   18.6340 C.2   177  LYS177      0.2616
     26  O        -11.4230   67.9160   19.7480 O.2   177  LYS177     -0.2715
     27  CB       -10.1400   65.2300   18.1100 C.3   177  LYS177      0.0311
     28  CG       -11.1040   64.5860   19.0660 C.3   177  LYS177      0.0038
     29  CD       -11.4120   63.1120   18.7350 C.3   177  LYS177      0.0206
     30  CE       -12.2950   62.9070   17.4740 C.3   177  LYS177      0.1093
     31  NZ       -13.6750   63.3660   17.6480 N.3   177  LYS177     -0.1314
     32  N        -11.6390   67.8060   17.4850 N.am  178  THR178     -0.1951
     33  CA       -12.9630   68.3930   17.4870 C.3   178  THR178      0.1897
     34  C        -13.9820   67.2610   17.5540 C.2   178  THR178      0.2313
     35  O        -13.7490   66.1670   17.0090 O.2   178  THR178     -0.2863
     36  CB       -13.2440   69.3100   16.2490 C.3   178  THR178      0.1794
     37  OG1      -13.1720   68.5520   15.0270 O.3   178  THR178     -0.2208
     38  CG2      -12.2050   70.4040   16.1280 C.3   178  THR178      0.0378
     39  N        -13.1470   65.7470   14.0430 N.3   187  GLY187     -0.1225
     40  CA       -11.9030   65.1260   13.6210 C.3   187  GLY187      0.1811
     41  C        -10.6600   65.6390   14.3320 C.2   187  GLY187      0.2280
     42  O        -10.6310   66.7660   14.8800 O.2   187  GLY187     -0.2866
     43  N         -6.4660   66.7290   14.2520 N.3   189  GLY189     -0.1225
     44  CA        -5.6240   67.5080   13.3760 C.3   189  GLY189      0.1811
     45  C         -4.3810   66.7980   12.8740 C.2   189  GLY189      0.2280
     46  O         -3.6310   67.3500   12.0570 O.2   189  GLY189     -0.2866
     47  N          0.8030   70.7340   14.4180 N.3   200  PHE200     -0.1241
     48  CA        -0.2150   71.6250   13.8570 C.3   200  PHE200      0.1605
     49  C          0.3110   72.3810   12.6160 C.2   200  PHE200      0.2264
     50  O         -0.3690   72.4580   11.5790 O.2   200  PHE200     -0.2867
     51  CB        -0.6560   72.5950   14.9390 C.3   200  PHE200      0.0534
     52  CG        -1.6530   73.6560   14.5000 C.ar  200  PHE200     -0.0203
     53  CD1       -2.9840   73.3450   14.3010 C.ar  200  PHE200     -0.0042
     54  CD2       -1.2560   74.9720   14.3540 C.ar  200  PHE200     -0.0042
     55  CE1       -3.9320   74.3310   13.9470 C.ar  200  PHE200     -0.0003
     56  CE2       -2.1940   75.9630   14.0140 C.ar  200  PHE200     -0.0003
     57  CZ        -3.5290   75.6420   13.7930 C.ar  200  PHE200     -0.0000
     58  N         -8.3150   67.1720   10.0710 N.3   228  MET228     -0.1230
     59  CA        -9.0660   68.3650    9.7110 C.3   228  MET228      0.1702
     60  C         -8.4580   69.6280   10.3250 C.2   228  MET228      0.2592
     61  O         -7.6850   69.5640   11.3070 O.2   228  MET228     -0.2718
     62  CB       -10.5410   68.2290   10.0890 C.3   228  MET228      0.0401
     63  CG       -10.8440   68.0190   11.5660 C.3   228  MET228      0.0596
     64  SD       -10.8960   69.5210   12.5620 S.3   228  MET228     -0.1393
     65  CE       -12.3920   70.3130   11.9990 C.3   228  MET228      0.0692
     66  N         -8.8560   70.7600    9.7470 N.am  229  MET229     -0.1965
     67  CA        -8.5430   72.0920   10.2550 C.3   229  MET229      0.1736
     68  C         -9.8350   72.8970   10.2830 C.2   229  MET229      0.2616
     69  O        -10.6530   72.8640    9.3560 O.2   229  MET229     -0.2715
     70  CB        -7.5280   72.7830    9.3510 C.3   229  MET229      0.0427
     71  CG        -6.1230   72.1510    9.3960 C.3   229  MET229      0.0599
     72  SD        -5.2850   72.5260   10.9530 S.3   229  MET229     -0.1393
     73  CE        -3.9680   71.3340   10.9710 C.3   229  MET229      0.0692
     74  N        -10.0420   73.6330   11.3650 N.am  230  LEU230     -0.1977
     75  CA       -11.1390   74.5900   11.4520 C.3   230  LEU230      0.1596
     76  C        -10.8790   75.7200   10.4900 C.2   230  LEU230      0.2287
     77  O         -9.7350   75.9750   10.1490 O.2   230  LEU230     -0.2864
     78  CB       -11.1920   75.1770   12.8620 C.3   230  LEU230      0.0297
     79  CG       -11.4670   74.1840   13.9850 C.3   230  LEU230      0.0022
     80  CD1      -11.0740   74.7820   15.3370 C.3   230  LEU230      0.0001
     81  CD2      -12.9340   73.7250   13.9690 C.3   230  LEU230      0.0001
     82  N         -8.2510   77.8020   12.0150 N.3   233  ASP233     -0.1239
     83  CA        -6.9310   77.1610   11.8790 C.3   233  ASP233      0.1674
     84  C         -6.3400   77.4870   10.5140 C.2   233  ASP233      0.2266
     85  O         -5.1990   77.9050   10.4040 O.2   233  ASP233     -0.2867
     86  CB        -7.0250   75.6220   11.9620 C.3   233  ASP233      0.1410
     87  CG        -7.3820   75.1020   13.3100 C.2   233  ASP233      0.3668
     88  OD1       -7.1200   75.7520   14.3810 O.co2 233  ASP233     -0.2456
     89  OD2       -7.8890   73.9640   13.3880 O.co2 233  ASP233     -0.2456
@<TRIPOS>BOND
     1    70    71    1
     2    70    67    1
     3    69    68    2
     4    71    72    1
     5    59    58    1
     6    59    62    1
     7    59    60    1
     8    66    67    1
     9    66    60   am
    10    62    63    1
    11    77    76    2
    12    67    68    1
    13    68    74   am
    14    60    61    2
    15    85    84    2
    16    76    75    1
    17    84    83    1
    18    72    73    1
    19    74    75    1
    20    75    78    1
    21    63    64    1
    22    50    49    2
    23    83    86    1
    24    83    82    1
    25    86    87    1
    26    65    64    1
    27    46    45    2
    28    49    48    1
    29    78    79    1
    30    45    44    1
    31    87    89   ar
    32    87    88   ar
    33    44    43    1
    34    40    39    1
    35    40    41    1
    36    57    55   ar
    37    57    56   ar
    38    48    47    1
    39    48    51    1
    40    55    53   ar
    41    81    79    1
    42    79    80    1
    43    56    54   ar
    44    53    52   ar
    45    41    42    2
    46    54    52   ar
    47    52    51    1
    48    37    36    1
    49    38    36    1
    50    36    33    1
    51    35    34    2
    52     7     9   ar
    53     7     6   ar
    54     5     6    1
    55     5     2    1
    56     4     3    2
    57    30    31    1
    58    30    29    1
    59    32    33    1
    60    32    25   am
    61    33    34    1
    62     9    10   ar
    63     6     8   ar
    64     3     2    1
    65    27    24    1
    66    27    28    1
    67     2     1    1
    68    24    25    1
    69    24    23    1
    70    25    26    2
    71    29    28    1
    72    22    21    2
    73    10     8   ar
    74    23    21   am
    75    21    20    1
    76    11    12    1
    77    14    13    2
    78    13    12    1
    79    13    19   am
    80    12    15    1
    81    19    20    1
    82    15    16    1
    83    16    18    1
    84    16    17    1
