@<TRIPOS>MOLECULE
tmp/2euuA01.pdb
 81 76 0 0 0
SMALL
GASTEIGER

@<TRIPOS>ATOM
      1  N         -3.8510   72.6480   18.6760 N.3   172  HIS172     -0.1241
      2  CA        -4.7940   71.8670   17.8890 C.3   172  HIS172      0.1621
      3  C         -4.2180   70.5750   17.2850 C.2   172  HIS172      0.2264
      4  O         -4.9630   69.7880   16.6920 O.2   172  HIS172     -0.2867
      5  CB        -5.4830   72.7310   16.8450 C.3   172  HIS172      0.0745
      6  CG        -6.5780   73.5730   17.4150 C.ar  172  HIS172      0.0817
      7  ND1       -7.1210   74.6370   16.7340 N.ar  172  HIS172     -0.2268
      8  CD2       -7.2320   73.5090   18.6050 C.ar  172  HIS172      0.1154
      9  CE1       -8.0840   75.1730   17.4690 C.ar  172  HIS172      0.1986
     10  NE2       -8.1700   74.5110   18.6110 N.ar  172  HIS172     -0.2212
     11  N         -3.3830   68.4940   19.4110 N.3   174  LEU174     -0.1245
     12  CA        -3.8410   67.6540   20.5190 C.3   174  LEU174      0.1561
     13  C         -5.3060   67.2750   20.3820 C.2   174  LEU174      0.2260
     14  O         -6.1610   68.0870   19.9830 O.2   174  LEU174     -0.2867
     15  CB        -3.6490   68.3760   21.8550 C.3   174  LEU174      0.0270
     16  CG        -2.2430   68.8390   22.1880 C.3   174  LEU174      0.0019
     17  CD1       -2.2690   69.7540   23.3860 C.3   174  LEU174      0.0001
     18  CD2       -1.3210   67.6510   22.4080 C.3   174  LEU174      0.0001
     19  N         -8.9830   66.0810   19.5880 N.3   176  LYS176     -0.1231
     20  CA        -9.7920   66.0840   18.3680 C.3   176  LYS176      0.1693
     21  C        -11.0210   66.9690   18.5100 C.2   176  LYS176      0.2592
     22  O        -11.4040   67.3440   19.6140 O.2   176  LYS176     -0.2718
     23  CB       -10.2140   64.6450   18.0010 C.3   176  LYS176      0.0285
     24  CG       -11.2160   64.0130   18.9490 C.3   176  LYS176      0.0035
     25  CD       -11.4710   62.5280   18.6490 C.3   176  LYS176      0.0206
     26  CE       -12.3260   62.2960   17.3970 C.3   176  LYS176      0.1093
     27  NZ       -13.6900   62.7870   17.5580 N.3   176  LYS176     -0.1314
     28  N        -11.6420   67.2910   17.3780 N.am  177  THR177     -0.1953
     29  CA       -12.9980   67.8310   17.3900 C.3   177  THR177      0.1897
     30  C        -13.9820   66.6660   17.4500 C.2   177  THR177      0.2313
     31  O        -13.7160   65.5890   16.9100 O.2   177  THR177     -0.2863
     32  CB       -13.2710   68.7290   16.1640 C.3   177  THR177      0.1794
     33  OG1      -13.1540   67.9760   14.9420 O.3   177  THR177     -0.2208
     34  CG2      -12.2320   69.8640   16.0650 C.3   177  THR177      0.0378
     35  N         -6.4180   66.7500   14.3090 N.3   188  GLY188     -0.1225
     36  CA        -5.5080   67.5320   13.5000 C.3   188  GLY188      0.1811
     37  C         -4.3080   66.7780   12.9600 C.2   188  GLY188      0.2280
     38  O         -3.5710   67.3050   12.1180 O.2   188  GLY188     -0.2866
     39  N          0.8550   70.2630   14.0420 N.3   199  PHE199     -0.1241
     40  CA        -0.2090   71.0990   13.4860 C.3   199  PHE199      0.1605
     41  C          0.3010   71.9070   12.2870 C.2   199  PHE199      0.2264
     42  O         -0.3630   71.9690   11.2470 O.2   199  PHE199     -0.2867
     43  CB        -0.7480   71.9910   14.6050 C.3   199  PHE199      0.0534
     44  CG        -1.7410   73.0330   14.1880 C.ar  199  PHE199     -0.0203
     45  CD1       -3.0820   72.7220   14.0370 C.ar  199  PHE199     -0.0042
     46  CD2       -1.3410   74.3570   14.0240 C.ar  199  PHE199     -0.0042
     47  CE1       -3.9970   73.7060   13.7060 C.ar  199  PHE199     -0.0003
     48  CE2       -2.2430   75.3300   13.6850 C.ar  199  PHE199     -0.0003
     49  CZ        -3.5730   75.0140   13.5310 C.ar  199  PHE199     -0.0000
     50  N         -8.1530   66.9530   10.0030 N.3   227  MET227     -0.1230
     51  CA        -9.0200   68.0920    9.7460 C.3   227  MET227      0.1702
     52  C         -8.4440   69.3850   10.3010 C.2   227  MET227      0.2592
     53  O         -7.5970   69.3820   11.2400 O.2   227  MET227     -0.2718
     54  CB       -10.4340   67.8590   10.3030 C.3   227  MET227      0.0401
     55  CG       -10.5060   67.8020   11.8400 C.3   227  MET227      0.0596
     56  SD       -10.6110   69.3990   12.6520 S.3   227  MET227     -0.1393
     57  CE       -12.1670   69.9630   12.1560 C.3   227  MET227      0.0692
     58  N         -8.9240   70.4780    9.7200 N.am  228  MET228     -0.1965
     59  CA        -8.6570   71.8420   10.1410 C.3   228  MET228      0.1736
     60  C         -9.9630   72.6300   10.1140 C.2   228  MET228      0.2616
     61  O        -10.7300   72.5390    9.1690 O.2   228  MET228     -0.2715
     62  CB        -7.6460   72.4990    9.2080 C.3   228  MET228      0.0427
     63  CG        -6.2440   71.9030    9.2510 C.3   228  MET228      0.0599
     64  SD        -5.3830   72.3030   10.8000 S.3   228  MET228     -0.1393
     65  CE        -4.0670   71.0290   10.7880 C.3   228  MET228      0.0692
     66  N        -10.2050   73.4280   11.1430 N.am  229  LEU229     -0.1977
     67  CA       -11.3310   74.3690   11.1490 C.3   229  LEU229      0.1596
     68  C        -11.0290   75.4770   10.1610 C.2   229  LEU229      0.2287
     69  O         -9.8800   75.7030    9.8360 O.2   229  LEU229     -0.2864
     70  CB       -11.4400   75.0180   12.5320 C.3   229  LEU229      0.0297
     71  CG       -11.7590   74.0990   13.7160 C.3   229  LEU229      0.0022
     72  CD1      -11.6290   74.8980   15.0060 C.3   229  LEU229      0.0001
     73  CD2      -13.1520   73.4680   13.5760 C.3   229  LEU229      0.0001
     74  N         -8.3620   77.5390   11.7140 N.3   232  ASP232     -0.1239
     75  CA        -7.0410   76.9160   11.6000 C.3   232  ASP232      0.1674
     76  C         -6.4430   77.1730   10.2110 C.2   232  ASP232      0.2266
     77  O         -5.3030   77.5870   10.0640 O.2   232  ASP232     -0.2867
     78  CB        -7.1100   75.3840   11.7630 C.3   232  ASP232      0.1410
     79  CG        -7.5520   74.9350   13.1360 C.2   232  ASP232      0.3668
     80  OD1       -7.1000   75.5500   14.1480 O.co2 232  ASP232     -0.2456
     81  OD2       -8.3170   73.9350   13.2800 O.co2 232  ASP232     -0.2456
@<TRIPOS>BOND
     1    61    60    2
     2    62    63    1
     3    62    59    1
     4    63    64    1
     5    58    59    1
     6    58    52   am
     7    51    50    1
     8    51    52    1
     9    51    54    1
    10    69    68    2
    11    77    76    2
    12    60    59    1
    13    60    66   am
    14    68    67    1
    15    76    75    1
    16    52    53    2
    17    54    55    1
    18    65    64    1
    19    66    67    1
    20    67    70    1
    21    42    41    2
    22    75    74    1
    23    75    78    1
    24    78    79    1
    25    55    56    1
    26    38    37    2
    27    57    56    1
    28    41    40    1
    29    70    71    1
    30    37    36    1
    31    79    81   ar
    32    79    80   ar
    33    40    39    1
    34    40    43    1
    35    36    35    1
    36    49    48   ar
    37    49    47   ar
    38    73    71    1
    39    48    46   ar
    40    47    45   ar
    41    71    72    1
    42    46    44   ar
    43    45    44   ar
    44    44    43    1
    45    33    32    1
    46    34    32    1
    47    32    29    1
    48     4     3    2
    49     7     6   ar
    50     7     9   ar
    51     5     6    1
    52     5     2    1
    53    31    30    2
    54     3     2    1
    55    28    29    1
    56    28    21   am
    57    29    30    1
    58    26    27    1
    59    26    25    1
    60     6     8   ar
    61     9    10   ar
    62     2     1    1
    63    23    20    1
    64    23    24    1
    65    20    21    1
    66    20    19    1
    67    21    22    2
    68     8    10   ar
    69    25    24    1
    70    11    12    1
    71    14    13    2
    72    13    12    1
    73    12    15    1
    74    15    16    1
    75    16    18    1
    76    16    17    1
