@<TRIPOS>MOLECULE
tmp/2ev4B00.pdb
 126 113 0 0 0
SMALL
GASTEIGER

@<TRIPOS>ATOM
      1  N          6.3370  -36.8530   26.5030 N.3    42  LEU42      -0.1245
      2  CA         6.0580  -36.3590   25.1550 C.3    42  LEU42       0.1561
      3  C          7.1420  -35.4640   24.5460 C.2    42  LEU42       0.2260
      4  O          6.9000  -34.8270   23.5400 O.2    42  LEU42      -0.2867
      5  CB         4.6970  -35.6590   25.1370 C.3    42  LEU42       0.0270
      6  CG         3.4860  -36.5510   25.4390 C.3    42  LEU42       0.0019
      7  CD1        2.2470  -35.6730   25.5940 C.3    42  LEU42       0.0001
      8  CD2        3.2660  -37.6250   24.3500 C.3    42  LEU42       0.0001
      9  N          8.1380  -36.1920   21.0200 N.3    45  THR45      -0.1218
     10  CA         6.9630  -36.1760   20.1290 C.3    45  THR45       0.1862
     11  C          6.5170  -34.7460   19.8040 C.2    45  THR45       0.2287
     12  O          5.9430  -34.4950   18.7500 O.2    45  THR45      -0.2866
     13  CB         5.8040  -37.0000   20.7500 C.3    45  THR45       0.1770
     14  OG1        6.1830  -38.3760   20.7650 O.3    45  THR45      -0.2211
     15  CG2        4.5250  -36.9030   19.9770 C.3    45  THR45       0.0375
     16  N          5.2860  -31.9850   16.2180 N.3    49  VAL49      -0.1245
     17  CA         4.2080  -31.0220   16.0200 C.3    49  VAL49       0.1561
     18  C          4.6970  -29.5860   16.0790 C.2    49  VAL49       0.2260
     19  O          3.9020  -28.6690   16.0680 O.2    49  VAL49      -0.2867
     20  CB         2.9980  -31.2590   16.9780 C.3    49  VAL49       0.0252
     21  CG1        2.2120  -32.5090   16.5490 C.3    49  VAL49       0.0019
     22  CG2        3.4170  -31.3580   18.4650 C.3    49  VAL49       0.0019
     23  N         -8.6890  -31.7370   18.0450 N.3   131  ALA131     -0.1245
     24  CA        -7.4320  -32.0900   18.7060 C.3   131  ALA131      0.1562
     25  C         -7.6330  -33.1710   19.7640 C.2   131  ALA131      0.2260
     26  O         -6.9140  -34.1850   19.7720 O.2   131  ALA131     -0.2867
     27  CB        -6.7950  -30.8660   19.3340 C.3   131  ALA131      0.0290
     28  N         -8.5180  -36.3440   18.2470 N.3   134  MET134     -0.1230
     29  CA        -7.2710  -36.8380   17.6650 C.3   134  MET134      0.1702
     30  C         -6.3800  -37.5010   18.7030 C.2   134  MET134      0.2592
     31  O         -5.7980  -38.5520   18.4580 O.2   134  MET134     -0.2718
     32  CB        -6.5290  -35.6850   16.9770 C.3   134  MET134      0.0401
     33  CG        -6.9710  -35.4590   15.5380 C.3   134  MET134      0.0596
     34  SD        -6.0980  -34.1080   14.7220 S.3   134  MET134     -0.1393
     35  CE        -7.1340  -32.8060   15.2290 C.3   134  MET134      0.0692
     36  N         -6.3040  -36.8800   19.8680 N.am  135  ARG135     -0.1980
     37  CA        -5.4690  -37.3640   20.9740 C.3   135  ARG135      0.1597
     38  C         -5.8760  -38.7670   21.3810 C.2   135  ARG135      0.2287
     39  O         -5.0310  -39.6550   21.4730 O.2   135  ARG135     -0.2864
     40  CB        -5.6000  -36.4280   22.1790 C.3   135  ARG135      0.0334
     41  CG        -4.6030  -36.6740   23.2780 C.3   135  ARG135      0.0492
     42  CD        -4.9860  -35.8940   24.5510 C.3   135  ARG135      0.2205
     43  NE        -4.0350  -36.1850   25.6140 N.pl3 135  ARG135     -0.0865
     44  CZ        -3.3930  -35.2910   26.3690 C.cat 135  ARG135      0.5346
     45  NH1       -3.6130  -34.0000   26.2280 N.pl3 135  ARG135      0.1354
     46  NH2       -2.5470  -35.7090   27.3230 N.pl3 135  ARG135      0.1354
     47  N         -7.7220  -40.9200   19.7090 N.3   137  THR137     -0.1203
     48  CA        -7.4710  -41.7960   18.5500 C.3   137  THR137      0.1994
     49  C         -6.0330  -42.3380   18.5370 C.2   137  THR137      0.2618
     50  O         -5.8120  -43.5360   18.3540 O.2   137  THR137     -0.2717
     51  CB        -7.7190  -41.0360   17.2280 C.3   137  THR137      0.1784
     52  OG1       -9.0480  -40.5110   17.2080 O.3   137  THR137     -0.2211
     53  CG2       -7.5020  -41.9260   16.0340 C.3   137  THR137      0.0376
     54  N         -5.0660  -41.4390   18.7370 N.am  138  ALA138     -0.1965
     55  CA        -3.6520  -41.7960   18.7050 C.3   138  ALA138      0.1728
     56  C         -3.2890  -42.6960   19.8830 C.2   138  ALA138      0.2616
     57  O         -2.6170  -43.7130   19.7020 O.2   138  ALA138     -0.2715
     58  CB        -2.7900  -40.5500   18.6940 C.3   138  ALA138      0.0334
     59  N         -3.7620  -42.3250   21.0730 N.am  139  LEU139     -0.1977
     60  CA        -3.5170  -43.0970   22.3240 C.3   139  LEU139      0.1596
     61  C         -3.9940  -44.5260   22.2480 C.2   139  LEU139      0.2287
     62  O         -3.2820  -45.4460   22.6530 O.2   139  LEU139     -0.2864
     63  CB        -4.1580  -42.4180   23.5490 C.3   139  LEU139      0.0297
     64  CG        -3.4640  -41.1480   24.0720 C.3   139  LEU139      0.0022
     65  CD1       -4.2120  -40.5840   25.2810 C.3   139  LEU139      0.0001
     66  CD2       -1.9750  -41.3700   24.4230 C.3   139  LEU139      0.0001
     67  N         -1.4210  -46.3720   20.3920 N.3   142  ILE142     -0.1245
     68  CA        -0.1310  -46.4810   21.0740 C.3   142  ILE142      0.1561
     69  C         -0.1920  -47.3690   22.3090 C.2   142  ILE142      0.2260
     70  O          0.7420  -48.1260   22.5800 O.2   142  ILE142     -0.2867
     71  CB         0.3740  -45.0830   21.5100 C.3   142  ILE142      0.0252
     72  CG1        0.6760  -44.2180   20.2720 C.3   142  ILE142      0.0019
     73  CG2        1.5980  -45.1850   22.4190 C.3   142  ILE142      0.0019
     74  CD1        0.4350  -42.7650   20.4870 C.3   142  ILE142      0.0001
     75  N          4.8740  -43.6730   20.6090 N.3   156  SER156     -0.1217
     76  CA         4.3000  -42.3740   20.2420 C.3   156  SER156      0.1889
     77  C          5.1060  -41.6680   19.1520 C.2   156  SER156      0.2288
     78  O          4.5300  -41.1060   18.2320 O.2   156  SER156     -0.2866
     79  CB         4.1530  -41.4560   21.4620 C.3   156  SER156      0.2089
     80  OG         3.4500  -42.1410   22.4850 O.3   156  SER156     -0.2183
     81  N          3.2990  -40.8250   15.5830 N.3   160  VAL160     -0.1245
     82  CA         3.1360  -39.4040   15.2770 C.3   160  VAL160      0.1561
     83  C          4.0400  -38.9900   14.1150 C.2   160  VAL160      0.2260
     84  O          3.6350  -38.1600   13.3020 O.2   160  VAL160     -0.2867
     85  CB         3.3730  -38.5250   16.5180 C.3   160  VAL160      0.0252
     86  CG1        3.2990  -37.0510   16.1810 C.3   160  VAL160      0.0019
     87  CG2        2.3340  -38.8390   17.5790 C.3   160  VAL160      0.0019
     88  N          2.0120  -40.0030   11.1170 N.3   163  ILE163     -0.1231
     89  CA         0.7510  -39.2820   10.9920 C.3   163  ILE163      0.1692
     90  C          0.9170  -37.8340   10.5590 C.2   163  ILE163      0.2591
     91  O          0.1830  -37.3790    9.6800 O.2   163  ILE163     -0.2718
     92  CB        -0.0730  -39.3120   12.2970 C.3   163  ILE163      0.0266
     93  CG1       -0.4900  -40.7490   12.6480 C.3   163  ILE163      0.0019
     94  CG2       -1.3610  -38.5410   12.1280 C.3   163  ILE163      0.0020
     95  CD1       -1.1170  -40.8530   14.0430 C.3   163  ILE163      0.0001
     96  N          1.8600  -37.1280   11.1870 N.am  164  VAL164     -0.1980
     97  CA         2.0760  -35.7110   10.9270 C.3   164  VAL164      0.1595
     98  C          2.1260  -35.3400    9.4300 C.2   164  VAL164      0.2287
     99  O          1.3930  -34.4510    9.0060 O.2   164  VAL164     -0.2864
    100  CB         3.3030  -35.1870   11.7080 C.3   164  VAL164      0.0276
    101  CG1        3.8110  -33.9080   11.1410 C.3   164  VAL164      0.0022
    102  CG2        2.9150  -34.9940   13.1700 C.3   164  VAL164      0.0022
    103  N         -1.4750  -35.0490    8.1310 N.3   167  LEU167     -0.1245
    104  CA        -2.4410  -34.1940    8.8260 C.3   167  LEU167      0.1561
    105  C         -2.6030  -32.8260    8.1900 C.2   167  LEU167      0.2260
    106  O         -3.6970  -32.3000    8.1020 O.2   167  LEU167     -0.2867
    107  CB        -2.0180  -33.9670   10.2920 C.3   167  LEU167      0.0270
    108  CG        -2.4580  -34.9900   11.3190 C.3   167  LEU167      0.0019
    109  CD1       -1.6450  -34.7250   12.6230 C.3   167  LEU167      0.0001
    110  CD2       -3.9660  -34.9420   11.5680 C.3   167  LEU167      0.0001
    111  N         -4.4820  -32.9710    4.8630 N.3   170  MET170     -0.1245
    112  CA        -5.8540  -33.3770    5.1740 C.3   170  MET170      0.1570
    113  C         -6.6790  -32.2070    5.6800 C.2   170  MET170      0.2261
    114  O         -7.7970  -32.0260    5.2030 O.2   170  MET170     -0.2867
    115  CB        -5.8410  -34.5110    6.1940 C.3   170  MET170      0.0387
    116  CG        -7.1990  -34.9890    6.6490 C.3   170  MET170      0.0595
    117  SD        -7.8780  -34.0610    8.0290 S.3   170  MET170     -0.1393
    118  CE        -6.6360  -34.2750    9.3010 C.3   170  MET170      0.0692
    119  N         -9.9650  -30.5180    3.9230 N.3   174  MET174     -0.1245
    120  CA       -11.2150  -30.4620    4.6560 C.3   174  MET174      0.1570
    121  C        -11.7710  -29.0690    4.7550 C.2   174  MET174      0.2261
    122  O        -12.9820  -28.9020    4.6990 O.2   174  MET174     -0.2867
    123  CB       -11.0380  -31.0430    6.0610 C.3   174  MET174      0.0387
    124  CG       -10.6630  -32.5200    6.0660 C.3   174  MET174      0.0595
    125  SD       -11.9820  -33.5830    5.5300 S.3   174  MET174     -0.1393
    126  CE       -13.0340  -33.4890    7.0070 C.3   174  MET174      0.0692
@<TRIPOS>BOND
     1   119   120    1
     2   120   121    1
     3   120   123    1
     4   122   121    2
     5   111   112    1
     6   112   113    1
     7   112   115    1
     8   114   113    2
     9   125   124    1
    10   125   126    1
    11   123   124    1
    12   115   116    1
    13   116   117    1
    14   117   118    1
    15   106   105    2
    16   103   104    1
    17   105   104    1
    18   104   107    1
    19    99    98    2
    20    98    97    1
    21    91    90    2
    22   107   108    1
    23    90    89    1
    24    90    96   am
    25    97    96    1
    26    97   100    1
    27    89    88    1
    28    89    92    1
    29   101   100    1
    30   108   110    1
    31   108   109    1
    32   100   102    1
    33    94    92    1
    34    92    93    1
    35    93    95    1
    36    84    83    2
    37    83    82    1
    38    34    35    1
    39    34    33    1
    40    82    81    1
    41    82    85    1
    42    33    32    1
    43    17    18    1
    44    17    16    1
    45    17    20    1
    46    53    51    1
    47    19    18    2
    48    86    85    1
    49    85    87    1
    50    21    20    1
    51    32    29    1
    52    20    22    1
    53    52    51    1
    54    51    48    1
    55    29    28    1
    56    29    30    1
    57    23    24    1
    58    78    77    2
    59    50    49    2
    60    31    30    2
    61    49    48    1
    62    49    54   am
    63    48    47    1
    64    58    55    1
    65    30    36   am
    66    55    54    1
    67    55    56    1
    68    24    27    1
    69    24    25    1
    70    12    11    2
    71    77    76    1
    72    57    56    2
    73    25    26    2
    74    11    10    1
    75    36    37    1
    76    56    59   am
    77    15    13    1
    78    10    13    1
    79    10     9    1
    80    76    75    1
    81    76    79    1
    82    72    74    1
    83    72    71    1
    84    67    68    1
    85    13    14    1
    86    37    38    1
    87    37    40    1
    88    59    60    1
    89    68    71    1
    90    68    69    1
    91    38    39    2
    92    79    80    1
    93    71    73    1
    94    40    41    1
    95    61    60    1
    96    61    62    2
    97    69    70    2
    98    60    63    1
    99    41    42    1
   100     4     3    2
   101    63    64    1
   102    64    66    1
   103    64    65    1
   104     8     6    1
   105     3     2    1
   106    42    43    1
   107     5     2    1
   108     5     6    1
   109     2     1    1
   110     6     7    1
   111    43    44    2
   112    45    44    1
   113    44    46    1
