@<TRIPOS>MOLECULE
tmp/2ev4B01.pdb
 108 99 0 0 0
SMALL
GASTEIGER

@<TRIPOS>ATOM
      1  N         -4.9450  -11.5970   18.1390 N.3    75  VAL75      -0.1245
      2  CA        -4.9780  -12.9400   17.5530 C.3    75  VAL75       0.1561
      3  C         -4.5480  -13.9900   18.5910 C.2    75  VAL75       0.2260
      4  O         -5.1980  -15.0410   18.7290 O.2    75  VAL75      -0.2867
      5  CB        -4.0930  -13.0040   16.2870 C.3    75  VAL75       0.0252
      6  CG1       -3.9880  -14.4310   15.7650 C.3    75  VAL75       0.0019
      7  CG2       -4.6590  -12.0980   15.1880 C.3    75  VAL75       0.0019
      8  N          2.6930  -18.5060   13.6580 N.3    99  ALA99      -0.1231
      9  CA         1.3300  -18.7450   13.2180 C.3    99  ALA99       0.1694
     10  C          0.4450  -17.4930   13.4480 C.2    99  ALA99       0.2591
     11  O         -0.2370  -17.0580   12.5470 O.2    99  ALA99      -0.2718
     12  CB         0.7520  -19.9930   13.8790 C.3    99  ALA99       0.0304
     13  N          0.4760  -16.9040   14.6270 N.am  100  ALA100     -0.1980
     14  CA        -0.3010  -15.6910   14.8840 C.3   100  ALA100      0.1597
     15  C          0.0680  -14.5120   13.9690 C.2   100  ALA100      0.2287
     16  O         -0.7580  -13.6690   13.6260 O.2   100  ALA100     -0.2864
     17  CB        -0.1700  -15.2920   16.3670 C.3   100  ALA100      0.0319
     18  N          0.6620  -14.6120   10.8640 N.3   102  ARG102     -0.1231
     19  CA         0.0790  -14.7280    9.5290 C.3   102  ARG102      0.1694
     20  C         -1.1860  -13.9240    9.3990 C.2   102  ARG102      0.2591
     21  O         -1.5970  -13.6100    8.2990 O.2   102  ARG102     -0.2718
     22  CB        -0.3420  -16.1590    9.2260 C.3   102  ARG102      0.0321
     23  CG         0.7150  -17.2030    9.2080 C.3   102  ARG102      0.0489
     24  CD         0.0440  -18.5450    8.8870 C.3   102  ARG102      0.2205
     25  NE         1.0280  -19.5990    8.6930 N.pl3 102  ARG102     -0.0865
     26  CZ         1.7120  -19.8190    7.5850 C.cat 102  ARG102      0.5346
     27  NH1        1.4960  -19.0800    6.5120 N.pl3 102  ARG102      0.1354
     28  NH2        2.6010  -20.8100    7.5580 N.pl3 102  ARG102      0.1354
     29  N         -1.8770  -13.7140   10.5020 N.am  103  ALA103     -0.1980
     30  CA        -3.2000  -13.0930   10.4410 C.3   103  ALA103      0.1597
     31  C         -3.1670  -11.7280    9.7460 C.2   103  ALA103      0.2287
     32  O         -4.1010  -11.3700    9.0380 O.2   103  ALA103     -0.2864
     33  CB        -3.8220  -12.9800   11.8390 C.3   103  ALA103      0.0319
     34  N         -3.9060  -11.2250    5.8940 N.3   106  PHE106     -0.1241
     35  CA        -5.3130  -11.2070    5.5370 C.3   106  PHE106      0.1605
     36  C         -5.8580   -9.7890    5.6750 C.2   106  PHE106      0.2264
     37  O         -6.6530   -9.3370    4.8610 O.2   106  PHE106     -0.2867
     38  CB        -6.1060  -12.1800    6.4160 C.3   106  PHE106      0.0534
     39  CG        -5.7710  -13.6330    6.1830 C.ar  106  PHE106     -0.0203
     40  CD1       -4.7990  -14.2630    6.9310 C.ar  106  PHE106     -0.0042
     41  CD2       -6.4100  -14.3680    5.1800 C.ar  106  PHE106     -0.0042
     42  CE1       -4.4900  -15.6180    6.7100 C.ar  106  PHE106     -0.0003
     43  CE2       -6.1150  -15.7110    4.9830 C.ar  106  PHE106     -0.0003
     44  CZ        -5.1680  -16.3330    5.7570 C.ar  106  PHE106     -0.0000
     45  N         -9.2710   -7.3070    4.5020 N.3   111  LEU111     -0.1245
     46  CA       -10.2170   -7.9800    5.3590 C.3   111  LEU111      0.1561
     47  C        -10.3160   -7.2170    6.6800 C.2   111  LEU111      0.2260
     48  O         -9.3260   -6.6840    7.1890 O.2   111  LEU111     -0.2867
     49  CB        -9.8200   -9.4320    5.5970 C.3   111  LEU111      0.0270
     50  CG        -9.8150  -10.3700    4.3970 C.3   111  LEU111      0.0019
     51  CD1       -9.5870  -11.8060    4.9000 C.3   111  LEU111      0.0001
     52  CD2      -11.0800  -10.2990    3.5360 C.3   111  LEU111      0.0001
     53  N        -11.4490  -10.9630   11.0410 N.3   116  VAL116     -0.1245
     54  CA       -10.2750  -11.8590   11.0350 C.3   116  VAL116      0.1561
     55  C        -10.0640  -12.4820   12.4190 C.2   116  VAL116      0.2260
     56  O         -9.9770  -13.7250   12.5590 O.2   116  VAL116     -0.2867
     57  CB        -9.0020  -11.0920   10.5640 C.3   116  VAL116      0.0252
     58  CG1       -7.7780  -11.9020   10.8060 C.3   116  VAL116      0.0019
     59  CG2       -9.1140  -10.7700    9.0760 C.3   116  VAL116      0.0019
     60  N        -12.7790  -14.9930   13.1210 N.3   119  VAL119     -0.1231
     61  CA       -12.5160  -16.2600   12.4210 C.3   119  VAL119      0.1692
     62  C        -11.5200  -17.1590   13.1720 C.2   119  VAL119      0.2591
     63  O        -11.7460  -18.3720   13.3210 O.2   119  VAL119     -0.2718
     64  CB       -12.0150  -16.0320   10.9590 C.3   119  VAL119      0.0266
     65  CG1      -11.6340  -17.3330   10.3350 C.3   119  VAL119      0.0020
     66  CG2      -13.1110  -15.3510   10.1010 C.3   119  VAL119      0.0020
     67  N        -10.4300  -16.5470   13.6120 N.am  120  VAL120     -0.1980
     68  CA        -9.3950  -17.2070   14.3990 C.3   120  VAL120      0.1595
     69  C        -10.0200  -17.8310   15.6420 C.2   120  VAL120      0.2287
     70  O         -9.7540  -18.9780   15.9770 O.2   120  VAL120     -0.2864
     71  CB        -8.3070  -16.2070   14.8890 C.3   120  VAL120      0.0276
     72  CG1       -7.3010  -16.9080   15.7540 C.3   120  VAL120      0.0022
     73  CG2       -7.6070  -15.5520   13.7270 C.3   120  VAL120      0.0022
     74  N        -12.2360  -20.7950   14.6230 N.3   123  LEU123     -0.1245
     75  CA       -11.3590  -21.8740   14.1630 C.3   123  LEU123      0.1561
     76  C        -10.6660  -22.5820   15.3150 C.2   123  LEU123      0.2260
     77  O        -10.6540  -23.8030   15.3970 O.2   123  LEU123     -0.2867
     78  CB       -10.3040  -21.3590   13.2240 C.3   123  LEU123      0.0270
     79  CG       -10.6550  -21.2410   11.7440 C.3   123  LEU123      0.0019
     80  CD1       -9.5560  -20.5070   11.0530 C.3   123  LEU123      0.0001
     81  CD2      -10.8090  -22.6010   11.1160 C.3   123  LEU123      0.0001
     82  N        -15.6220  -24.9620    2.1930 N.3   179  LEU179     -0.1231
     83  CA       -15.7570  -23.7320    1.4040 C.3   179  LEU179      0.1693
     84  C        -16.4140  -23.9620    0.0360 C.2   179  LEU179      0.2591
     85  O        -17.0210  -23.0310   -0.5040 O.2   179  LEU179     -0.2718
     86  CB       -14.4040  -23.0520    1.1960 C.3   179  LEU179      0.0284
     87  CG       -13.7250  -22.4870    2.4310 C.3   179  LEU179      0.0019
     88  CD1      -12.2970  -22.0610    2.1070 C.3   179  LEU179      0.0001
     89  CD2      -14.5020  -21.3560    2.9980 C.3   179  LEU179      0.0001
     90  N        -16.3070  -25.1900   -0.5060 N.am  180  ARG180     -0.1980
     91  CA       -16.9980  -25.5660   -1.7310 C.3   180  ARG180      0.1597
     92  C        -18.5030  -25.7340   -1.5410 C.2   180  ARG180      0.2287
     93  O        -19.2680  -25.6670   -2.5140 O.2   180  ARG180     -0.2864
     94  CB       -16.4200  -26.8490   -2.3310 C.3   180  ARG180      0.0334
     95  CG       -15.1390  -26.6020   -3.1020 C.3   180  ARG180      0.0492
     96  CD       -14.6920  -27.8050   -3.9320 C.3   180  ARG180      0.2205
     97  NE       -14.3280  -28.9680   -3.1270 N.pl3 180  ARG180     -0.0865
     98  CZ       -13.1280  -29.1890   -2.5750 C.cat 180  ARG180      0.5346
     99  NH1      -12.1440  -28.3090   -2.6860 N.pl3 180  ARG180      0.1354
    100  NH2      -12.9120  -30.3130   -1.8940 N.pl3 180  ARG180      0.1354
    101  N        -20.6980  -23.9390    0.5360 N.3   182  MET182     -0.1245
    102  CA       -21.2610  -22.8060    1.2710 C.3   182  MET182      0.1570
    103  C        -22.7390  -22.7160    0.9030 C.2   182  MET182      0.2261
    104  O        -23.5640  -23.4020    1.5000 O.2   182  MET182     -0.2867
    105  CB       -20.5300  -21.4900    0.9260 C.3   182  MET182      0.0387
    106  CG       -19.0910  -21.3570    1.4420 C.3   182  MET182      0.0595
    107  SD       -18.8420  -21.7610    3.1660 S.3   182  MET182     -0.1393
    108  CE       -20.0250  -20.7280    4.0280 C.3   182  MET182      0.0692
@<TRIPOS>BOND
     1    96    97    1
     2    96    95    1
     3    97    98    2
     4    95    94    1
     5    99    98    1
     6    98   100    1
     7    93    92    2
     8    94    91    1
     9    91    92    1
    10    91    90    1
    11    90    84   am
    12    85    84    2
    13    84    83    1
    14   101   102    1
    15   103   102    1
    16   103   104    2
    17   105   102    1
    18   105   106    1
    19    86    83    1
    20    86    87    1
    21    83    82    1
    22   106   107    1
    23    88    87    1
    24    87    89    1
    25   107   108    1
    26    52    50    1
    27    50    51    1
    28    50    49    1
    29    45    46    1
    30    37    36    2
    31    43    41   ar
    32    43    44   ar
    33    41    39   ar
    34    46    49    1
    35    46    47    1
    36    35    36    1
    37    35    34    1
    38    35    38    1
    39    44    42   ar
    40    39    38    1
    41    39    40   ar
    42    27    26    1
    43    47    48    2
    44    42    40   ar
    45    28    26    1
    46    26    25    2
    47    21    20    2
    48    25    24    1
    49    24    23    1
    50    32    31    2
    51    59    57    1
    52    23    22    1
    53    22    19    1
    54    20    19    1
    55    20    29   am
    56    19    18    1
    57    31    30    1
    58    66    64    1
    59    65    64    1
    60    30    29    1
    61    30    33    1
    62    57    58    1
    63    57    54    1
    64    64    61    1
    65    54    53    1
    66    54    55    1
    67    80    79    1
    68    81    79    1
    69    79    78    1
    70    55    56    2
    71    61    60    1
    72    61    62    1
    73    11    10    2
    74    62    63    2
    75    62    67   am
    76     9    10    1
    77     9     8    1
    78     9    12    1
    79    78    75    1
    80    10    13   am
    81    67    68    1
    82    16    15    2
    83    73    71    1
    84    15    14    1
    85    75    74    1
    86    75    76    1
    87    68    71    1
    88    68    69    1
    89    13    14    1
    90    14    17    1
    91    71    72    1
    92     7     5    1
    93    76    77    2
    94    69    70    2
    95     6     5    1
    96     5     2    1
    97     2     1    1
    98     2     3    1
    99     3     4    2
