@<TRIPOS>MOLECULE
tmp/2ev9A01.pdb
 208 199 0 0 0
SMALL
GASTEIGER

@<TRIPOS>ATOM
      1  N         28.2480    9.0480   20.7940 N.3    61  LEU61      -0.1245
      2  CA        28.8230    7.7160   20.6370 C.3    61  LEU61       0.1561
      3  C         29.3210    7.1610   21.9590 C.2    61  LEU61       0.2260
      4  O         30.0400    7.8420   22.6930 O.2    61  LEU61      -0.2867
      5  CB        29.9980    7.7370   19.6610 C.3    61  LEU61       0.0270
      6  CG        29.6730    7.7770   18.1710 C.3    61  LEU61       0.0019
      7  CD1       29.0220    9.1090   17.8200 C.3    61  LEU61       0.0001
      8  CD2       30.9640    7.5840   17.3870 C.3    61  LEU61       0.0001
      9  N         23.7330    6.7180   21.5660 N.3    64  LYS64      -0.1231
     10  CA        22.5650    7.1090   20.7700 C.3    64  LYS64       0.1693
     11  C         21.5470    6.0280   20.3980 C.2    64  LYS64       0.2591
     12  O         20.3470    6.2060   20.6060 O.2    64  LYS64      -0.2718
     13  CB        23.0160    7.8210   19.4890 C.3    64  LYS64       0.0285
     14  CG        23.7160    9.1500   19.7210 C.3    64  LYS64       0.0035
     15  CD        23.8460    9.9320   18.4170 C.3    64  LYS64       0.0206
     16  CE        24.5000   11.2810   18.6520 C.3    64  LYS64       0.1093
     17  NZ        24.6250   12.0730   17.3960 N.3    64  LYS64      -0.1314
     18  N         22.0130    4.9150   19.8440 N.am   65  GLU65      -0.1979
     19  CA        21.1060    3.8520   19.4350 C.3    65  GLU65       0.1602
     20  C         20.4980    3.0440   20.5810 C.2    65  GLU65       0.2287
     21  O         19.2940    2.7810   20.5960 O.2    65  GLU65      -0.2864
     22  CB        21.8160    2.8930   18.4700 C.3    65  GLU65       0.0415
     23  CG        22.2250    3.5020   17.1300 C.3    65  GLU65       0.1163
     24  CD        23.3330    4.5340   17.2540 C.2    65  GLU65       0.3649
     25  OE1       24.3940    4.2090   17.8310 O.co2  65  GLU65      -0.2457
     26  OE2       23.1460    5.6700   16.7660 O.co2  65  GLU65      -0.2457
     27  N         19.6780   16.3250   16.1390 N.3   100  ASP100     -0.1239
     28  CA        20.6930   16.2920   15.0830 C.3   100  ASP100      0.1674
     29  C         20.0390   16.5810   13.7310 C.2   100  ASP100      0.2266
     30  O         20.5680   17.3460   12.9280 O.2   100  ASP100     -0.2867
     31  CB        21.3890   14.9210   14.9970 C.3   100  ASP100      0.1410
     32  CG        22.4180   14.7100   16.0920 C.2   100  ASP100      0.3668
     33  OD1       23.1680   15.6620   16.4030 O.co2 100  ASP100     -0.2456
     34  OD2       22.4920   13.5840   16.6310 O.co2 100  ASP100     -0.2456
     35  N         27.9060    7.8160    4.2200 N.3   123  GLY123     -0.1210
     36  CA        27.8610    7.1760    5.5150 C.3   123  GLY123      0.1956
     37  C         26.4250    6.8530    5.8590 C.2   123  GLY123      0.2612
     38  O         25.5650    7.7350    5.8620 O.2   123  GLY123     -0.2717
     39  N         26.1650    5.5840    6.1390 N.am  124  ALA124     -0.1965
     40  CA        24.8240    5.1380    6.4760 C.3   124  ALA124      0.1728
     41  C         24.7240    4.8190    7.9580 C.2   124  ALA124      0.2617
     42  O         23.8340    4.0870    8.3890 O.2   124  ALA124     -0.2715
     43  CB        24.4590    3.9140    5.6420 C.3   124  ALA124      0.0334
     44  N         25.6410    5.3850    8.7340 N.am  125  GLY125     -0.1940
     45  CA        25.6390    5.1670   10.1680 C.3   125  GLY125      0.2014
     46  C         24.6430    6.0850   10.8440 C.2   125  GLY125      0.2639
     47  O         23.7930    6.6790   10.1790 O.2   125  GLY125     -0.2714
     48  N         24.7510    6.2070   12.1630 N.am  126  GLY126     -0.1939
     49  CA        23.8390    7.0470   12.9220 C.3   126  GLY126      0.2014
     50  C         23.7130    8.4880   12.4620 C.2   126  GLY126      0.2638
     51  O         22.5970    9.0190   12.3590 O.2   126  GLY126     -0.2714
     52  N         24.8460    9.1370   12.1960 N.am  127  ALA127     -0.1977
     53  CA        24.8270   10.5310   11.7510 C.3   127  ALA127      0.1597
     54  C         24.2450   10.6240   10.3510 C.2   127  ALA127      0.2287
     55  O         23.4710   11.5290   10.0510 O.2   127  ALA127     -0.2864
     56  CB        26.2300   11.1100   11.7680 C.3   127  ALA127      0.0319
     57  N         25.4910    6.6400    0.3230 N.3   145  TRP145     -0.1227
     58  CA        26.5930    5.7390    0.0040 C.3   145  TRP145      0.1737
     59  C         27.1680    5.3000    1.3330 C.2   145  TRP145      0.2595
     60  O         27.0500    6.0130    2.3270 O.2   145  TRP145     -0.2718
     61  CB        27.6820    6.4680   -0.7980 C.3   145  TRP145      0.0564
     62  CG        28.9790    5.6980   -0.9200 C.ar  145  TRP145      0.0003
     63  CD1       29.3050    4.7740   -1.8750 C.ar  145  TRP145      0.0946
     64  CD2       30.0990    5.7580   -0.0210 C.ar  145  TRP145      0.0152
     65  NE1       30.5580    4.2520   -1.6230 N.ar  145  TRP145     -0.2442
     66  CE2       31.0660    4.8390   -0.4930 C.ar  145  TRP145      0.0810
     67  CE3       30.3780    6.4980    1.1370 C.ar  145  TRP145      0.0012
     68  CZ2       32.2950    4.6410    0.1560 C.ar  145  TRP145      0.0191
     69  CZ3       31.6050    6.2990    1.7850 C.ar  145  TRP145      0.0001
     70  CH2       32.5430    5.3800    1.2900 C.ar  145  TRP145      0.0015
     71  N         27.7760    4.1200    1.3610 N.am  146  ASN146     -0.1960
     72  CA        28.4080    3.6320    2.5800 C.3   146  ASN146      0.1819
     73  C         29.5400    2.7270    2.1300 C.2   146  ASN146      0.2621
     74  O         29.4120    2.0390    1.1220 O.2   146  ASN146     -0.2715
     75  CB        27.4240    2.8360    3.4420 C.3   146  ASN146      0.1195
     76  CG        27.9100    2.6730    4.8760 C.2   146  ASN146      0.2630
     77  OD1       28.0280    3.6540    5.6140 O.2   146  ASN146     -0.2716
     78  ND2       28.1970    1.4410    5.2740 N.am  146  ASN146     -0.0877
     79  N         30.6490    2.7330    2.8620 N.am  147  ARG147     -0.1963
     80  CA        31.7820    1.8840    2.5010 C.3   147  ARG147      0.1729
     81  C         31.2740    0.4540    2.3940 C.2   147  ARG147      0.2616
     82  O         31.6660   -0.2960    1.5010 O.2   147  ARG147     -0.2715
     83  CB        32.8750    1.9690    3.5630 C.3   147  ARG147      0.0348
     84  CG        34.0860    1.1020    3.2580 C.3   147  ARG147      0.0492
     85  CD        35.0840    1.1500    4.3970 C.3   147  ARG147      0.2205
     86  NE        34.4410    0.8810    5.6800 N.pl3 147  ARG147     -0.0865
     87  CZ        35.0910    0.7890    6.8350 C.cat 147  ARG147      0.5346
     88  NH1       36.4090    0.9420    6.8640 N.pl3 147  ARG147      0.1354
     89  NH2       34.4260    0.5580    7.9610 N.pl3 147  ARG147      0.1354
     90  N         30.4110    0.0770    3.3280 N.am  148  THR148     -0.1951
     91  CA        29.8080   -1.2490    3.3140 C.3   148  THR148      0.1897
     92  C         28.4780   -1.0350    2.5850 C.2   148  THR148      0.2313
     93  O         27.5350   -0.4790    3.1470 O.2   148  THR148     -0.2863
     94  CB        29.5510   -1.7610    4.7430 C.3   148  THR148      0.1794
     95  OG1       30.7650   -1.6950    5.4970 O.3   148  THR148     -0.2208
     96  CG2       29.0740   -3.2020    4.7110 C.3   148  THR148      0.0378
     97  N         24.7180   -1.4750    4.1790 N.3   151  ARG151     -0.1245
     98  CA        24.1660   -0.4680    5.0760 C.3   151  ARG151      0.1563
     99  C         23.4400    0.6290    4.3040 C.2   151  ARG151      0.2260
    100  O         22.3850    1.1030    4.7290 O.2   151  ARG151     -0.2867
    101  CB        25.2750    0.1310    5.9460 C.3   151  ARG151      0.0307
    102  CG        24.8310    0.4550    7.3690 C.3   151  ARG151      0.0489
    103  CD        25.9940    0.8890    8.2420 C.3   151  ARG151      0.2205
    104  NE        25.5920    1.0380    9.6400 N.pl3 151  ARG151     -0.0865
    105  CZ        26.3960    1.4520   10.6170 C.cat 151  ARG151      0.5346
    106  NH1       27.6570    1.7710   10.3550 N.pl3 151  ARG151      0.1354
    107  NH2       25.9440    1.5240   11.8620 N.pl3 151  ARG151      0.1354
    108  N         29.1040   12.1920    6.4510 N.3   178  ALA178     -0.1231
    109  CA        28.5830   11.7540    7.7250 C.3   178  ALA178      0.1694
    110  C         29.3670   10.5350    8.1820 C.2   178  ALA178      0.2593
    111  O         28.8970    9.7620    9.0120 O.2   178  ALA178     -0.2718
    112  CB        27.0760   11.4220    7.6040 C.3   178  ALA178      0.0304
    113  N         30.5580   10.3550    7.6200 N.am  179  THR179     -0.1939
    114  CA        31.4150    9.2370    8.0150 C.3   179  THR179      0.2028
    115  C         32.4570    9.7970    8.9740 C.2   179  THR179      0.2642
    116  O         32.5860   11.0200    9.1160 O.2   179  THR179     -0.2714
    117  CB        32.1820    8.6400    6.8350 C.3   179  THR179      0.1808
    118  OG1       33.2840    9.4950    6.5030 O.3   179  THR179     -0.2208
    119  CG2       31.2760    8.4940    5.6310 C.3   179  THR179      0.0379
    120  N         33.2010    8.9070    9.6260 N.am  180  ARG180     -0.1963
    121  CA        34.2390    9.3420   10.5500 C.3   180  ARG180      0.1729
    122  C         35.5710    9.4860    9.8180 C.2   180  ARG180      0.2616
    123  O         36.6110    9.7170   10.4370 O.2   180  ARG180     -0.2715
    124  CB        34.3780    8.3490   11.7100 C.3   180  ARG180      0.0348
    125  CG        34.7030    6.9400   11.2750 C.3   180  ARG180      0.0492
    126  CD        34.9070    5.9820   12.4520 C.3   180  ARG180      0.2205
    127  NE        35.1230    4.6200   11.9650 N.pl3 180  ARG180     -0.0865
    128  CZ        35.4750    3.5810   12.7130 C.cat 180  ARG180      0.5346
    129  NH1       35.6640    3.7300   14.0170 N.pl3 180  ARG180      0.1354
    130  NH2       35.6240    2.3880   12.1500 N.pl3 180  ARG180      0.1354
    131  N         35.5450    9.3430    8.4980 N.am  181  VAL181     -0.1977
    132  CA        36.7750    9.4780    7.7240 C.3   181  VAL181      0.1596
    133  C         37.2210   10.9280    7.8040 C.2   181  VAL181      0.2287
    134  O         36.4260   11.8330    7.5660 O.2   181  VAL181     -0.2864
    135  CB        36.5630    9.0960    6.2480 C.3   181  VAL181      0.0276
    136  CG1       37.8840    9.2240    5.4690 C.3   181  VAL181      0.0022
    137  CG2       36.0330    7.6790    6.1710 C.3   181  VAL181      0.0022
    138  N         38.4490   12.2410   10.6010 N.3   183  LEU183     -0.1245
    139  CA        38.4550   12.6220   12.0100 C.3   183  LEU183      0.1561
    140  C         39.9060   12.6170   12.4830 C.2   183  LEU183      0.2260
    141  O         40.5510   11.5650   12.5180 O.2   183  LEU183     -0.2867
    142  CB        37.6330   11.6310   12.8360 C.3   183  LEU183      0.0270
    143  CG        37.4840   11.9150   14.3330 C.3   183  LEU183      0.0019
    144  CD1       36.9980   13.3470   14.5740 C.3   183  LEU183      0.0001
    145  CD2       36.5130   10.9080   14.9260 C.3   183  LEU183      0.0001
    146  N         36.6270   10.7630    2.5440 N.3   190  PRO190     -0.2116
    147  CA        35.7890    9.6610    2.0610 C.3   190  PRO190      0.1372
    148  C         35.5010    9.7050    0.5610 C.2   190  PRO190      0.2244
    149  O         35.0110    8.7300   -0.0110 O.2   190  PRO190     -0.2868
    150  CB        34.5230    9.8070    2.9020 C.3   190  PRO190      0.0268
    151  CG        34.4170   11.3120    3.0560 C.3   190  PRO190      0.0207
    152  CD        35.8580   11.6730    3.4110 C.3   190  PRO190      0.0892
    153  N         30.4230   16.7810    8.8160 N.3   205  LEU205     -0.1231
    154  CA        30.0190   16.6850   10.2100 C.3   205  LEU205      0.1693
    155  C         31.2700   16.6400   11.1000 C.2   205  LEU205      0.2592
    156  O         31.2240   16.9980   12.2720 O.2   205  LEU205     -0.2718
    157  CB        29.1740   15.4290   10.4400 C.3   205  LEU205      0.0284
    158  CG        27.8390   15.3250    9.6950 C.3   205  LEU205      0.0019
    159  CD1       26.9460   14.2920   10.3950 C.3   205  LEU205      0.0001
    160  CD2       27.1630   16.6780    9.6670 C.3   205  LEU205      0.0001
    161  N         32.3870   16.1910   10.5360 N.am  206  VAL206     -0.1966
    162  CA        33.6350   16.1170   11.2880 C.3   206  VAL206      0.1727
    163  C         34.2050   17.5180   11.4560 C.2   206  VAL206      0.2616
    164  O         34.3460   18.2420   10.4750 O.2   206  VAL206     -0.2715
    165  CB        34.6790   15.2550   10.5540 C.3   206  VAL206      0.0290
    166  CG1       36.0320   15.3420   11.2750 C.3   206  VAL206      0.0023
    167  CG2       34.1920   13.7990   10.4830 C.3   206  VAL206      0.0023
    168  N         34.5330   17.8950   12.6910 N.am  207  TYR207     -0.1974
    169  CA        35.0930   19.2190   12.9450 C.3   207  TYR207      0.1639
    170  C         36.4790   19.1970   13.6030 C.2   207  TYR207      0.2290
    171  O         36.9890   20.2320   14.0360 O.2   207  TYR207     -0.2864
    172  CB        34.0950   20.0740   13.7490 C.3   207  TYR207      0.0560
    173  CG        33.5610   19.4220   15.0000 C.ar  207  TYR207     -0.0198
    174  CD1       34.2880   19.4500   16.1880 C.ar  207  TYR207     -0.0009
    175  CD2       32.3430   18.7400   14.9880 C.ar  207  TYR207     -0.0009
    176  CE1       33.8290   18.8170   17.3300 C.ar  207  TYR207      0.0417
    177  CE2       31.8690   18.0980   16.1340 C.ar  207  TYR207      0.0417
    178  CZ        32.6210   18.1410   17.2980 C.ar  207  TYR207      0.1957
    179  OH        32.1850   17.4900   18.4300 O.3   207  TYR207     -0.2866
    180  N         31.6310   21.4270   10.5340 N.3   228  GLY228     -0.1225
    181  CA        30.7120   20.7280   11.4180 C.3   228  GLY228      0.1811
    182  C         30.2230   21.5350   12.6130 C.2   228  GLY228      0.2280
    183  O         29.3180   21.0950   13.3220 O.2   228  GLY228     -0.2866
    184  N         26.1990   22.8090   12.7590 N.3   231  MET231     -0.1230
    185  CA        25.2740   21.7410   13.1230 C.3   231  MET231      0.1702
    186  C         25.4010   21.3710   14.5980 C.2   231  MET231      0.2592
    187  O         24.3980   21.1600   15.2850 O.2   231  MET231     -0.2718
    188  CB        25.5110   20.5030   12.2570 C.3   231  MET231      0.0401
    189  CG        24.5920   19.3460   12.6190 C.3   231  MET231      0.0596
    190  SD        24.9210   17.8700   11.6440 S.3   231  MET231     -0.1393
    191  CE        23.8370   16.6820   12.4570 C.3   231  MET231      0.0692
    192  N         26.6380   21.2860   15.0800 N.am  232  LEU232     -0.1980
    193  CA        26.8990   20.9620   16.4750 C.3   232  LEU232      0.1596
    194  C         26.2120   21.9930   17.3690 C.2   232  LEU232      0.2287
    195  O         25.5830   21.6510   18.3750 O.2   232  LEU232     -0.2864
    196  CB        28.4100   20.9740   16.7470 C.3   232  LEU232      0.0297
    197  CG        28.8580   20.7680   18.1990 C.3   232  LEU232      0.0022
    198  CD1       28.4750   19.3640   18.6780 C.3   232  LEU232      0.0001
    199  CD2       30.3740   20.9650   18.2860 C.3   232  LEU232      0.0001
    200  N         22.1570   21.7320   17.0570 N.3   235  GLN235     -0.1245
    201  CA        21.5880   20.5770   17.7410 C.3   235  GLN235      0.1566
    202  C         21.6320   20.8610   19.2420 C.2   235  GLN235      0.2260
    203  O         20.7290   20.4680   19.9800 O.2   235  GLN235     -0.2867
    204  CB        22.3480   19.2920   17.3860 C.3   235  GLN235      0.0367
    205  CG        23.8140   19.2370   17.7980 C.3   235  GLN235      0.0905
    206  CD        23.9830   18.9420   19.2660 C.2   235  GLN235      0.2608
    207  OE1       23.3140   18.0600   19.8090 O.2   235  GLN235     -0.2717
    208  NE2       24.8760   19.6730   19.9240 N.am  235  GLN235     -0.0878
@<TRIPOS>BOND
     1    63    65   ar
     2    63    62   ar
     3    65    66   ar
     4    62    61    1
     5    62    64   ar
     6    61    58    1
     7    66    64   ar
     8    66    68   ar
     9    64    67   ar
    10   149   148    2
    11    58    57    1
    12    58    59    1
    13    68    70   ar
    14   148   147    1
    15    74    73    2
    16    67    69   ar
    17    70    69   ar
    18    59    71   am
    19    59    60    2
    20    71    72    1
    21    82    81    2
    22   147   146    1
    23   147   150    1
    24    73    72    1
    25    73    79   am
    26    81    80    1
    27    81    90   am
    28    80    79    1
    29    80    83    1
    30   146   152    1
    31    72    75    1
    32    92    93    2
    33    92    91    1
    34   150   151    1
    35   151   152    1
    36    84    83    1
    37    84    85    1
    38    91    90    1
    39    91    94    1
    40    75    76    1
    41    97    98    1
    42    35    36    1
    43    99   100    2
    44    99    98    1
    45    85    86    1
    46    96    94    1
    47    94    95    1
    48    76    78   am
    49    76    77    2
    50    98   101    1
    51   136   135    1
    52    36    37    1
    53   119   117    1
    54    43    40    1
    55    86    87    2
    56    37    38    2
    57    37    39   am
    58   101   102    1
    59    39    40    1
    60   137   135    1
    61   135   132    1
    62   108   109    1
    63    40    41    1
    64   118   117    1
    65    87    88    1
    66    87    89    1
    67   117   114    1
    68   102   103    1
    69   134   133    2
    70   112   109    1
    71   113   114    1
    72   113   110   am
    73   132   133    1
    74   132   131    1
    75   109   110    1
    76    41    42    2
    77    41    44   am
    78   114   115    1
    79   110   111    2
    80   103   104    1
    81   131   122   am
    82    44    45    1
    83   153   154    1
    84   115   116    2
    85   115   120   am
    86   120   121    1
    87   104   105    2
    88   160   158    1
    89   158   159    1
    90   158   157    1
    91   122   123    2
    92   122   121    1
    93    55    54    2
    94    45    46    1
    95    47    46    2
    96   154   157    1
    97   154   155    1
    98    54    53    1
    99   106   105    1
   100   164   163    2
   101   167   165    1
   102   180   181    1
   103   161   155   am
   104   161   162    1
   105   121   124    1
   106   165   166    1
   107   165   162    1
   108   138   139    1
   109   105   107    1
   110    46    48   am
   111   155   156    2
   112   125   124    1
   113   125   126    1
   114   162   163    1
   115   181   182    1
   116   163   168   am
   117   190   191    1
   118   190   189    1
   119    53    56    1
   120    53    52    1
   121   127   126    1
   122   127   128    2
   123   139   140    1
   124   139   142    1
   125   130   128    1
   126    48    49    1
   127    52    50   am
   128   188   189    1
   129   188   185    1
   130    51    50    2
   131    50    49    1
   132   140   141    2
   133   182   183    2
   134   168   169    1
   135   128   129    1
   136   184   185    1
   137   142   143    1
   138    30    29    2
   139   169   170    1
   140   169   172    1
   141   185   186    1
   142   170   171    2
   143    29    28    1
   144   172   173    1
   145   143   144    1
   146   143   145    1
   147   186   192   am
   148   186   187    2
   149   175   173   ar
   150   175   177   ar
   151    31    28    1
   152    31    32    1
   153   173   174   ar
   154   192   193    1
   155    28    27    1
   156    32    33   ar
   157    32    34   ar
   158   177   178   ar
   159   174   176   ar
   160   193   196    1
   161   193   194    1
   162   196   197    1
   163    26    24   ar
   164   200   201    1
   165    23    24    1
   166    23    22    1
   167    24    25   ar
   168   178   176   ar
   169   178   179    1
   170   194   195    2
   171   204   201    1
   172   204   205    1
   173     8     6    1
   174    17    16    1
   175   201   202    1
   176   205   206    1
   177     7     6    1
   178     6     5    1
   179   197   199    1
   180   197   198    1
   181    15    16    1
   182    15    14    1
   183    22    19    1
   184   202   203    2
   185   206   207    2
   186   206   208   am
   187    19    18    1
   188    19    20    1
   189    13    14    1
   190    13    10    1
   191     5     2    1
   192    18    11   am
   193    11    12    2
   194    11    10    1
   195    20    21    2
   196     2     1    1
   197     2     3    1
   198    10     9    1
   199     3     4    2
