@<TRIPOS>MOLECULE
tmp/2ev9B00.pdb
 112 104 0 0 0
SMALL
GASTEIGER

@<TRIPOS>ATOM
      1  N         -3.7980   28.7340   31.7870 N.3     6  VAL6       -0.1245
      2  CA        -4.6320   27.8200   32.5440 C.3     6  VAL6        0.1561
      3  C         -5.8900   27.7280   31.6960 C.2     6  VAL6        0.2260
      4  O         -6.4820   28.7440   31.3470 O.2     6  VAL6       -0.2867
      5  CB        -4.9770   28.3490   33.9610 C.3     6  VAL6        0.0252
      6  CG1       -5.6460   29.7080   33.8850 C.3     6  VAL6        0.0019
      7  CG2       -5.8800   27.3560   34.6600 C.3     6  VAL6        0.0019
      8  N         -9.2100   32.1340   38.7190 N.3    14  SER14      -0.1202
      9  CA        -8.0310   31.3030   38.9350 C.3    14  SER14       0.2020
     10  C         -6.9450   32.1910   39.5260 C.2    14  SER14       0.2619
     11  O         -6.8280   33.3600   39.1580 O.2    14  SER14      -0.2717
     12  CB        -7.5410   30.7200   37.6100 C.3    14  SER14       0.2103
     13  OG        -6.2520   30.1430   37.7500 O.3    14  SER14      -0.2182
     14  N         -6.1560   31.6450   40.4460 N.am   15  LEU15      -0.1965
     15  CA        -5.0840   32.4090   41.0620 C.3    15  LEU15       0.1728
     16  C         -3.7600   32.0940   40.3600 C.2    15  LEU15       0.2616
     17  O         -2.7200   32.6630   40.6930 O.2    15  LEU15      -0.2715
     18  CB        -4.9900   32.0730   42.5590 C.3    15  LEU15       0.0311
     19  CG        -6.2600   32.2790   43.4030 C.3    15  LEU15       0.0022
     20  CD1       -6.0380   31.7830   44.8290 C.3    15  LEU15       0.0001
     21  CD2       -6.6400   33.7530   43.4040 C.3    15  LEU15       0.0001
     22  N         -3.8020   31.1890   39.3850 N.am   16  SER16      -0.1950
     23  CA        -2.5920   30.8050   38.6630 C.3    16  SER16       0.1924
     24  C         -1.9350   31.9550   37.9010 C.2    16  SER16       0.2314
     25  O         -0.7140   32.1040   37.9300 O.2    16  SER16      -0.2863
     26  CB        -2.8830   29.6480   37.7060 C.3    16  SER16       0.2116
     27  OG        -3.0390   28.4340   38.4220 O.3    16  SER16      -0.2180
     28  N         -1.8880   24.5970   32.3560 N.3    58  ASN58      -0.1225
     29  CA        -2.5100   23.8790   33.4510 C.3    58  ASN58       0.1785
     30  C         -3.9320   23.6310   32.9960 C.2    58  ASN58       0.2597
     31  O         -4.4590   24.3630   32.1590 O.2    58  ASN58      -0.2718
     32  CB        -2.5230   24.7170   34.7270 C.3    58  ASN58       0.1169
     33  CG        -1.2130   24.6420   35.4810 C.2    58  ASN58       0.2627
     34  OD1       -0.6530   25.6630   35.8600 O.2    58  ASN58      -0.2716
     35  ND2       -0.7220   23.4260   35.7100 N.am   58  ASN58      -0.0877
     36  N         -4.5470   22.5860   33.5260 N.am   59  LEU59      -0.1966
     37  CA        -5.9170   22.2790   33.1640 C.3    59  LEU59       0.1728
     38  C         -6.7690   22.2600   34.4210 C.2    59  LEU59       0.2616
     39  O         -6.3700   21.6960   35.4360 O.2    59  LEU59      -0.2715
     40  CB        -5.9950   20.9220   32.4610 C.3    59  LEU59       0.0311
     41  CG        -5.3160   20.7870   31.0950 C.3    59  LEU59       0.0022
     42  CD1       -5.5660   19.3760   30.5770 C.3    59  LEU59       0.0001
     43  CD2       -5.8490   21.8200   30.1110 C.3    59  LEU59       0.0001
     44  N         -7.9320   22.8970   34.3490 N.am   60  THR60      -0.1951
     45  CA        -8.8520   22.9330   35.4750 C.3    60  THR60       0.1897
     46  C        -10.1990   22.3940   35.0080 C.2    60  THR60       0.2313
     47  O        -10.3660   22.0390   33.8390 O.2    60  THR60      -0.2863
     48  CB        -9.0690   24.3640   36.0000 C.3    60  THR60       0.1794
     49  OG1       -7.9670   25.1950   35.6160 O.3    60  THR60      -0.2208
     50  CG2       -9.1740   24.3470   37.5250 C.3    60  THR60       0.0378
     51  N         -9.8630   18.2340   33.1030 N.3    64  LYS64      -0.1245
     52  CA        -8.8890   17.3080   33.6760 C.3    64  LYS64       0.1561
     53  C         -8.9940   15.8450   33.2550 C.2    64  LYS64       0.2260
     54  O         -7.9780   15.1660   33.1120 O.2    64  LYS64      -0.2867
     55  CB        -8.9070   17.3900   35.2050 C.3    64  LYS64       0.0271
     56  CG        -8.3610   18.6890   35.7660 C.3    64  LYS64       0.0035
     57  CD        -8.0190   18.5280   37.2390 C.3    64  LYS64       0.0206
     58  CE        -7.4270   19.8020   37.8270 C.3    64  LYS64       0.1093
     59  NZ        -7.0930   19.6350   39.2740 N.3    64  LYS64      -0.1314
     60  N         -3.5470   17.8450   35.0420 N.3    85  ASN85      -0.1240
     61  CA        -3.6670   19.2590   35.3630 C.3    85  ASN85       0.1653
     62  C         -2.5090   20.0390   34.7520 C.2    85  ASN85       0.2266
     63  O         -2.5390   21.2670   34.7050 O.2    85  ASN85      -0.2867
     64  CB        -3.6830   19.4540   36.8880 C.3    85  ASN85       0.1155
     65  CG        -2.2880   19.4430   37.5010 C.2    85  ASN85       0.2627
     66  OD1       -1.4500   18.6030   37.1690 O.2    85  ASN85      -0.2716
     67  ND2       -2.0380   20.3820   38.4120 N.am   85  ASN85      -0.0877
     68  N         -0.9910   17.9150   41.2090 N.3   100  ASP100     -0.1239
     69  CA        -1.8080   18.0680   42.4130 C.3   100  ASP100      0.1674
     70  C         -1.3760   17.0360   43.4430 C.2   100  ASP100      0.2266
     71  O         -1.1760   17.3590   44.6120 O.2   100  ASP100     -0.2867
     72  CB        -3.3010   17.8810   42.1120 C.3   100  ASP100      0.1410
     73  CG        -3.9060   19.0630   41.3940 C.2   100  ASP100      0.3668
     74  OD1       -3.5610   20.2090   41.7450 O.co2 100  ASP100     -0.2456
     75  OD2       -4.7390   18.8500   40.4860 O.co2 100  ASP100     -0.2456
     76  N        -10.1440   26.9160   49.5490 N.3   207  TYR207     -0.1241
     77  CA        -9.4430   28.1020   50.0450 C.3   207  TYR207      0.1605
     78  C        -10.2620   29.3920   49.9790 C.2   207  TYR207      0.2264
     79  O         -9.7230   30.4880   50.1440 O.2   207  TYR207     -0.2867
     80  CB        -8.1030   28.3000   49.3230 C.3   207  TYR207      0.0534
     81  CG        -8.1520   28.1970   47.8180 C.ar  207  TYR207     -0.0201
     82  CD1       -7.8310   27.0030   47.1730 C.ar  207  TYR207     -0.0009
     83  CD2       -8.4820   29.3030   47.0340 C.ar  207  TYR207     -0.0009
     84  CE1       -7.8330   26.9140   45.7780 C.ar  207  TYR207      0.0417
     85  CE2       -8.4850   29.2290   45.6440 C.ar  207  TYR207      0.0417
     86  CZ        -8.1610   28.0350   45.0220 C.ar  207  TYR207      0.1957
     87  OH        -8.1600   27.9660   43.6520 O.3   207  TYR207     -0.2866
     88  N         -1.0260   23.8040   48.8940 N.3   231  MET231     -0.1230
     89  CA        -1.1250   22.7990   47.8360 C.3   231  MET231      0.1702
     90  C         -1.2400   23.4790   46.4750 C.2   231  MET231      0.2592
     91  O         -0.6410   23.0370   45.4940 O.2   231  MET231     -0.2718
     92  CB        -2.3450   21.8980   48.0370 C.3   231  MET231      0.0401
     93  CG        -2.5550   20.9340   46.8680 C.3   231  MET231      0.0596
     94  SD        -4.0200   19.8920   47.0090 S.3   231  MET231     -0.1393
     95  CE        -5.2630   20.9360   46.1940 C.3   231  MET231      0.0692
     96  N         -2.0240   24.5510   46.4150 N.am  232  LEU232     -0.1980
     97  CA        -2.2010   25.2850   45.1690 C.3   232  LEU232      0.1596
     98  C         -0.8580   25.8230   44.6940 C.2   232  LEU232      0.2287
     99  O         -0.5310   25.7510   43.5100 O.2   232  LEU232     -0.2864
    100  CB        -3.1720   26.4560   45.3660 C.3   232  LEU232      0.0297
    101  CG        -3.4150   27.2650   44.0840 C.3   232  LEU232      0.0022
    102  CD1       -4.0450   26.3660   43.0200 C.3   232  LEU232      0.0001
    103  CD2       -4.3120   28.4440   44.3770 C.3   232  LEU232      0.0001
    104  N          1.5860   22.7370   43.5640 N.3   235  GLN235     -0.1245
    105  CA         1.2260   22.1070   42.3010 C.3   235  GLN235      0.1566
    106  C          1.5950   23.0590   41.1630 C.2   235  GLN235      0.2260
    107  O          1.9720   22.6290   40.0760 O.2   235  GLN235     -0.2867
    108  CB        -0.2700   21.7350   42.2630 C.3   235  GLN235      0.0367
    109  CG        -1.2710   22.8890   42.1960 C.3   235  GLN235      0.0905
    110  CD        -1.3230   23.5560   40.8320 C.2   235  GLN235      0.2608
    111  OE1       -1.2250   22.8930   39.8020 O.2   235  GLN235     -0.2717
    112  NE2       -1.4990   24.8740   40.8210 N.am  235  GLN235     -0.0878
@<TRIPOS>BOND
     1    43    41    1
     2    42    41    1
     3    41    40    1
     4     4     3    2
     5     3     2    1
     6     1     2    1
     7    31    30    2
     8    28    29    1
     9    40    37    1
    10     2     5    1
    11    30    29    1
    12    30    36   am
    13    51    52    1
    14    54    53    2
    15    37    36    1
    16    37    38    1
    17    53    52    1
    18    29    32    1
    19    52    55    1
    20    47    46    2
    21     6     5    1
    22     5     7    1
    23    44    38   am
    24    44    45    1
    25    38    39    2
    26    63    62    2
    27    32    33    1
    28    62    61    1
    29    46    45    1
    30    60    61    1
    31    55    56    1
    32    61    64    1
    33    45    48    1
    34    33    35   am
    35    33    34    2
    36    49    48    1
    37    56    57    1
    38    48    50    1
    39    64    65    1
    40    66    65    2
    41    57    58    1
    42    65    67   am
    43    12    13    1
    44    12     9    1
    45    26    27    1
    46    26    23    1
    47    58    59    1
    48    24    25    2
    49    24    23    1
    50    23    22    1
    51     8     9    1
    52     9    10    1
    53    11    10    2
    54    22    16   am
    55    10    14   am
    56   111   110    2
    57   107   106    2
    58    16    17    2
    59    16    15    1
    60    14    15    1
    61    75    73   ar
    62   112   110   am
    63   110   109    1
    64    15    18    1
    65   106   105    1
    66    68    69    1
    67    73    74   ar
    68    73    72    1
    69    72    69    1
    70   109   108    1
    71   108   105    1
    72   105   104    1
    73    69    70    1
    74    18    19    1
    75   102   101    1
    76    19    21    1
    77    19    20    1
    78    70    71    2
    79    99    98    2
    80    87    86    1
    81   101   103    1
    82   101   100    1
    83    98    97    1
    84    86    85   ar
    85    86    84   ar
    86    97   100    1
    87    97    96    1
    88    91    90    2
    89    85    83   ar
    90    84    82   ar
    91    95    94    1
    92    96    90   am
    93    90    89    1
    94    93    94    1
    95    93    92    1
    96    83    81   ar
    97    82    81   ar
    98    81    80    1
    99    89    92    1
   100    89    88    1
   101    80    77    1
   102    76    77    1
   103    78    77    1
   104    78    79    2
