@<TRIPOS>MOLECULE
tmp/2evaA00.pdb
 126 119 0 0 0
SMALL
GASTEIGER

@<TRIPOS>ATOM
      1  N         18.8120   58.3480   13.6090 N.3    16  VAL16      -0.1231
      2  CA        18.7830   57.1590   14.4460 C.3    16  VAL16       0.1692
      3  C         17.8150   56.1220   13.8790 C.2    16  VAL16       0.2593
      4  O         17.6520   55.0460   14.4430 O.2    16  VAL16      -0.2718
      5  CB        18.3760   57.5150   15.9010 C.3    16  VAL16       0.0266
      6  CG1       16.8730   57.4230   16.0690 C.3    16  VAL16       0.0020
      7  CG2       19.0890   56.6060   16.8770 C.3    16  VAL16       0.0020
      8  N         17.1740   56.4480   12.7610 N.am   17  GLY17      -0.1942
      9  CA        16.2530   55.5060   12.1580 C.3    17  GLY17       0.2014
     10  C         15.0410   56.1100   11.4830 C.2    17  GLY17       0.2639
     11  O         14.7840   57.3100   11.5830 O.2    17  GLY17      -0.2714
     12  N         14.2970   55.2560   10.7870 N.am   18  ARG18      -0.1963
     13  CA        13.0830   55.6540   10.0830 C.3    18  ARG18       0.1729
     14  C         12.0040   54.5980   10.3180 C.2    18  ARG18       0.2616
     15  O         12.2280   53.4120   10.0880 O.2    18  ARG18      -0.2715
     16  CB        13.3580   55.7820    8.5840 C.3    18  ARG18       0.0348
     17  CG        14.3910   56.8390    8.2300 C.3    18  ARG18       0.0492
     18  CD        14.9090   56.6520    6.8110 C.3    18  ARG18       0.2205
     19  NE        15.4050   55.2950    6.5750 N.pl3  18  ARG18      -0.0865
     20  CZ        16.3970   54.7180    7.2510 C.cat  18  ARG18       0.5346
     21  NH1       17.0230   55.3770    8.2200 N.pl3  18  ARG18       0.1354
     22  NH2       16.7540   53.4710    6.9660 N.pl3  18  ARG18       0.1354
     23  N         10.8390   55.0330   10.7880 N.am   19  GLY19      -0.1955
     24  CA         9.7490   54.1090   11.0500 C.3    19  GLY19       0.1869
     25  C          8.6870   54.1420    9.9670 C.2    19  GLY19       0.2309
     26  O          9.0120   54.2940    8.7890 O.2    19  GLY19      -0.2863
     27  N         13.5880   59.5920   12.3770 N.3    24  VAL24      -0.1245
     28  CA        13.9840   59.8890   13.7450 C.3    24  VAL24       0.1561
     29  C         15.4650   60.1990   13.8240 C.2    24  VAL24       0.2260
     30  O         16.2850   59.4590   13.2950 O.2    24  VAL24      -0.2867
     31  CB        13.6720   58.7140   14.6880 C.3    24  VAL24       0.0252
     32  CG1       13.9850   59.1110   16.1250 C.3    24  VAL24       0.0019
     33  CG2       12.2140   58.3050   14.5450 C.3    24  VAL24       0.0019
     34  N         15.0000   63.1220   20.9940 N.3    35  ALA35      -0.1245
     35  CA        14.8920   62.3490   19.7690 C.3    35  ALA35       0.1562
     36  C         13.7480   63.0300   19.0370 C.2    35  ALA35       0.2260
     37  O         12.7410   63.3700   19.6510 O.2    35  ALA35      -0.2867
     38  CB        14.5390   60.9090   20.0750 C.3    35  ALA35       0.0290
     39  N          6.4710   56.0800   25.2180 N.3    64  VAL64      -0.1245
     40  CA         7.4240   57.1730   25.0170 C.3    64  VAL64       0.1561
     41  C          6.7920   58.5300   25.2760 C.2    64  VAL64       0.2260
     42  O          5.7440   58.8610   24.7220 O.2    64  VAL64      -0.2867
     43  CB         7.9990   57.1960   23.5960 C.3    64  VAL64       0.0252
     44  CG1        8.9160   56.0210   23.3970 C.3    64  VAL64       0.0019
     45  CG2        6.8670   57.1850   22.5740 C.3    64  VAL64       0.0019
     46  N         10.3740   63.8790   21.2350 N.3    78  MET78      -0.1230
     47  CA        10.1490   62.8630   22.2590 C.3    78  MET78       0.1702
     48  C         11.3750   62.6680   23.1120 C.2    78  MET78       0.2592
     49  O         12.4250   63.2480   22.8500 O.2    78  MET78      -0.2718
     50  CB         9.8340   61.5200   21.6200 C.3    78  MET78       0.0401
     51  CG         9.1280   61.6070   20.3060 C.3    78  MET78       0.0596
     52  SD         9.4480   60.1050   19.4180 S.3    78  MET78      -0.1393
     53  CE        10.9740   60.5170   18.5650 C.3    78  MET78       0.0692
     54  N         11.2420   61.8210   24.1230 N.am   79  GLU79      -0.1966
     55  CA        12.3650   61.5330   24.9960 C.3    79  GLU79       0.1733
     56  C         13.2890   60.6130   24.2180 C.2    79  GLU79       0.2616
     57  O         12.8350   59.8600   23.3590 O.2    79  GLU79      -0.2715
     58  CB        11.8920   60.8410   26.2770 C.3    79  GLU79       0.0429
     59  CG        11.6090   59.3580   26.1250 C.3    79  GLU79       0.1163
     60  CD        11.0790   58.7370   27.4060 C.2    79  GLU79       0.3649
     61  OE1        9.8480   58.8130   27.6420 O.co2  79  GLU79      -0.2457
     62  OE2       11.8980   58.1840   28.1800 O.co2  79  GLU79      -0.2457
     63  N         14.5830   60.6850   24.5070 N.am   80  TYR80      -0.1960
     64  CA        15.5550   59.8430   23.8230 C.3    80  TYR80       0.1771
     65  C         15.7640   58.5120   24.5470 C.2    80  TYR80       0.2619
     66  O         16.2140   58.4780   25.6980 O.2    80  TYR80      -0.2715
     67  CB        16.9030   60.5620   23.6900 C.3    80  TYR80       0.0574
     68  CG        17.9510   59.6980   23.0330 C.ar   80  TYR80      -0.0198
     69  CD1       17.7890   59.2540   21.7220 C.ar   80  TYR80      -0.0009
     70  CD2       19.0740   59.2730   23.7390 C.ar   80  TYR80      -0.0009
     71  CE1       18.7130   58.4040   21.1310 C.ar   80  TYR80       0.0417
     72  CE2       20.0080   58.4210   23.1590 C.ar   80  TYR80       0.0417
     73  CZ        19.8210   57.9890   21.8550 C.ar   80  TYR80       0.1957
     74  OH        20.7360   57.1330   21.2780 O.3    80  TYR80      -0.2866
     75  N         15.4400   57.4190   23.8640 N.am   81  ALA81      -0.1977
     76  CA        15.5990   56.0910   24.4400 C.3    81  ALA81       0.1597
     77  C         17.0610   55.6840   24.3250 C.2    81  ALA81       0.2287
     78  O         17.5100   55.1990   23.2790 O.2    81  ALA81      -0.2864
     79  CB        14.7020   55.0860   23.7140 C.3    81  ALA81       0.0319
     80  N         17.9720   52.1460   23.1530 N.3    84  GLY84      -0.1210
     81  CA        17.7130   51.7320   21.7840 C.3    84  GLY84       0.1956
     82  C         16.4410   50.9210   21.6330 C.2    84  GLY84       0.2612
     83  O         15.5830   50.9190   22.5120 O.2    84  GLY84      -0.2717
     84  N         16.3230   50.2140   20.5180 N.am   85  SER85      -0.1952
     85  CA        15.1370   49.4110   20.2530 C.3    85  SER85       0.1924
     86  C         15.2670   47.9910   20.8180 C.2    85  SER85       0.2314
     87  O         16.3680   47.5300   21.1000 O.2    85  SER85      -0.2863
     88  CB        14.8710   49.3780   18.7350 C.3    85  SER85       0.2116
     89  OG        14.0330   48.3080   18.3740 O.3    85  SER85      -0.2180
     90  N         10.8130   46.6010   16.6950 N.3   134  PRO134     -0.2102
     91  CA        11.3640   47.8900   16.2530 C.3   134  PRO134      0.1504
     92  C         10.6350   49.0760   16.8980 C.2   134  PRO134      0.2575
     93  O         11.1570   50.1970   16.9450 O.2   134  PRO134     -0.2718
     94  CB        11.1590   47.8510   14.7460 C.3   134  PRO134      0.0282
     95  CG        11.2910   46.4020   14.4290 C.3   134  PRO134      0.0208
     96  CD        10.4840   45.7540   15.5320 C.3   134  PRO134      0.0893
     97  N          9.4250   48.8170   17.3900 N.am  135  ASN135     -0.1975
     98  CA         8.6100   49.8520   18.0190 C.3   135  ASN135      0.1688
     99  C          8.5920   49.7900   19.5380 C.2   135  ASN135      0.2292
    100  O          7.7470   50.4090   20.1770 O.2   135  ASN135     -0.2864
    101  CB         7.1710   49.7890   17.4990 C.3   135  ASN135      0.1181
    102  CG         7.0780   50.0740   16.0220 C.2   135  ASN135      0.2629
    103  OD1        7.9600   50.7150   15.4520 O.2   135  ASN135     -0.2716
    104  ND2        6.0020   49.6160   15.3940 N.am  135  ASN135     -0.0877
    105  N         11.0240   50.4540   22.7920 N.3   137  LEU137     -0.1245
    106  CA        12.2860   51.0620   23.1740 C.3   137  LEU137      0.1561
    107  C         12.6610   50.7340   24.6090 C.2   137  LEU137      0.2260
    108  O         11.7950   50.5100   25.4390 O.2   137  LEU137     -0.2867
    109  CB        12.1920   52.5780   22.9860 C.3   137  LEU137      0.0270
    110  CG        11.7180   53.0400   21.6110 C.3   137  LEU137      0.0019
    111  CD1       11.4700   54.5350   21.6500 C.3   137  LEU137      0.0001
    112  CD2       12.7420   52.6510   20.5540 C.3   137  LEU137      0.0001
    113  N          6.2260   52.9790   21.2870 N.3   148  CYS148     -0.1221
    114  CA         6.2060   54.1720   20.4600 C.3   148  CYS148      0.1808
    115  C          5.6230   53.8260   19.0890 C.2   148  CYS148      0.2601
    116  O          5.2170   52.6850   18.8500 O.2   148  CYS148     -0.2717
    117  CB         7.6150   54.7430   20.3130 C.3   148  CYS148      0.0970
    118  SG         8.7200   53.7600   19.2760 S.3   148  CYS148     -0.0800
    119  N          5.5770   54.8180   18.2030 N.am  149  ASP149     -0.1973
    120  CA         5.0490   54.6660   16.8460 C.3   149  ASP149      0.1709
    121  C          3.7740   53.8490   16.7090 C.2   149  ASP149      0.2293
    122  O          3.8140   52.7150   16.2250 O.2   149  ASP149     -0.2864
    123  CB         6.0980   54.0600   15.9080 C.3   149  ASP149      0.1436
    124  CG         7.3130   54.9500   15.7270 C.2   149  ASP149      0.3671
    125  OD1        7.1710   56.1970   15.7790 O.co2 149  ASP149     -0.2456
    126  OD2        8.4160   54.3950   15.5110 O.co2 149  ASP149     -0.2456
@<TRIPOS>BOND
     1    19    18    1
     2    19    20    2
     3    18    17    1
     4    22    20    1
     5    20    21    1
     6    17    16    1
     7    16    13    1
     8    26    25    2
     9    25    24    1
    10    13    14    1
    11    13    12    1
    12    15    14    2
    13    14    23   am
    14    12    10   am
    15    23    24    1
    16    10    11    2
    17    10     9    1
    18     9     8    1
    19    27    28    1
    20     8     3   am
    21    30    29    2
    22     1     2    1
    23    28    29    1
    24    28    31    1
    25     3     4    2
    26     3     2    1
    27    95    94    1
    28    95    96    1
    29     2     5    1
    30    33    31    1
    31    31    32    1
    32    94    91    1
    33   104   102   am
    34   103   102    2
    35   126   124   ar
    36    96    90    1
    37   124   125   ar
    38   124   123    1
    39     5     6    1
    40     5     7    1
    41   123   120    1
    42   102   101    1
    43   122   121    2
    44    91    90    1
    45    91    92    1
    46   121   120    1
    47   120   119    1
    48    92    93    2
    49    92    97   am
    50    97    98    1
    51   101    98    1
    52    98    99    1
    53   119   115   am
    54    89    88    1
    55    53    52    1
    56    88    85    1
    57   116   115    2
    58    36    37    2
    59    36    35    1
    60   115   114    1
    61   118   117    1
    62    52    51    1
    63    99   100    2
    64    35    38    1
    65    35    34    1
    66    85    84    1
    67    85    86    1
    68    51    50    1
    69   117   114    1
    70   114   113    1
    71    84    82   am
    72   112   110    1
    73    86    87    2
    74    71    69   ar
    75    71    73   ar
    76    46    47    1
    77    74    73    1
    78   110   111    1
    79   110   109    1
    80    50    47    1
    81    82    81    1
    82    82    83    2
    83    69    68   ar
    84    81    80    1
    85    73    72   ar
    86    47    48    1
    87    45    43    1
    88   105   106    1
    89    49    48    2
    90   109   106    1
    91    68    67    1
    92    68    70   ar
    93    48    54   am
    94    72    70   ar
    95   106   107    1
    96    78    77    2
    97    57    56    2
    98    44    43    1
    99    43    40    1
   100    67    64    1
   101    79    76    1
   102    64    63    1
   103    64    65    1
   104    75    76    1
   105    75    65   am
   106    54    55    1
   107    56    63   am
   108    56    55    1
   109    77    76    1
   110    65    66    2
   111   107   108    2
   112    42    41    2
   113    55    58    1
   114    40    39    1
   115    40    41    1
   116    59    58    1
   117    59    60    1
   118    60    61   ar
   119    60    62   ar
