@<TRIPOS>MOLECULE
tmp/2evcA00.pdb
 160 156 0 0 0
SMALL
GASTEIGER

@<TRIPOS>ATOM
      1  N         -4.7630    6.2740    9.8450 N.3    56  CYS56      -0.1235
      2  CA        -5.4360    5.0670   10.3180 C.3    56  CYS56       0.1677
      3  C         -6.9340    5.2210   10.5290 C.2    56  CYS56       0.2270
      4  O         -7.7160    4.3640   10.1230 O.2    56  CYS56      -0.2867
      5  CB        -4.8010    4.6010   11.6270 C.3    56  CYS56       0.0956
      6  SG        -3.0300    4.3010   11.5200 S.3    56  CYS56      -0.0801
      7  N         -9.5060    4.2610    7.7740 N.3    59  TYR59      -0.1227
      8  CA        -8.9310    3.3780    6.7700 C.3    59  TYR59       0.1736
      9  C         -9.4990    1.9790    6.9440 C.2    59  TYR59       0.2595
     10  O         -9.3280    1.3550    7.9930 O.2    59  TYR59      -0.2718
     11  CB        -7.4070    3.3530    6.8940 C.3    59  TYR59       0.0548
     12  CG        -6.7280    2.5760    5.7960 C.ar   59  TYR59      -0.0200
     13  CD1       -6.8380    2.9660    4.4610 C.ar   59  TYR59      -0.0009
     14  CD2       -5.9930    1.4350    6.0860 C.ar   59  TYR59      -0.0009
     15  CE1       -6.2330    2.2310    3.4470 C.ar   59  TYR59       0.0417
     16  CE2       -5.3880    0.6930    5.0870 C.ar   59  TYR59       0.0417
     17  CZ        -5.5110    1.0940    3.7680 C.ar   59  TYR59       0.1957
     18  OH        -4.9200    0.3420    2.7810 O.3    59  TYR59      -0.2866
     19  N        -10.1700    1.4930    5.9010 N.am   60  HIS60      -0.1975
     20  CA       -10.8120    0.1830    5.9240 C.3    60  HIS60       0.1656
     21  C        -11.7420    0.1070    7.1240 C.2    60  HIS60       0.2291
     22  O        -12.0960   -0.9770    7.5870 O.2    60  HIS60      -0.2864
     23  CB        -9.7770   -0.9450    5.9810 C.3    60  HIS60       0.0771
     24  CG        -9.1650   -1.2680    4.6520 C.ar   60  HIS60       0.0820
     25  ND1       -9.9150   -1.6550    3.5630 N.ar   60  HIS60      -0.2267
     26  CD2       -7.8760   -1.2660    4.2380 C.ar   60  HIS60       0.1154
     27  CE1       -9.1150   -1.8760    2.5350 C.ar   60  HIS60       0.1986
     28  NE2       -7.8720   -1.6480    2.9180 N.ar   60  HIS60      -0.2212
     29  N        -11.0720    1.4670   10.1970 N.3    62  TYR62      -0.1241
     30  CA       -10.4000    1.4480   11.4940 C.3    62  TYR62       0.1605
     31  C        -10.9340    2.5940   12.3520 C.2    62  TYR62       0.2264
     32  O        -10.9380    3.7470   11.9290 O.2    62  TYR62      -0.2867
     33  CB        -8.8860    1.5710   11.3250 C.3    62  TYR62       0.0534
     34  CG        -8.1400    1.3210   12.6100 C.ar   62  TYR62      -0.0201
     35  CD1       -8.0820    0.0440   13.1690 C.ar   62  TYR62      -0.0009
     36  CD2       -7.5430    2.3710   13.3020 C.ar   62  TYR62      -0.0009
     37  CE1       -7.4490   -0.1780   14.3930 C.ar   62  TYR62       0.0417
     38  CE2       -6.9140    2.1630   14.5190 C.ar   62  TYR62       0.0417
     39  CZ        -6.8700    0.8900   15.0620 C.ar   62  TYR62       0.1957
     40  OH        -6.2660    0.7000   16.2820 O.3    62  TYR62      -0.2866
     41  N         -2.5820    2.2520   16.2550 N.3    67  CYS67      -0.1235
     42  CA        -2.8290    0.8640   16.6230 C.3    67  CYS67       0.1677
     43  C         -1.9430    0.5860   17.8220 C.2    67  CYS67       0.2270
     44  O         -0.7690    0.9520   17.8270 O.2    67  CYS67      -0.2867
     45  CB        -2.4470   -0.0930   15.4950 C.3    67  CYS67       0.0956
     46  SG        -3.5060   -0.0190   14.0450 S.3    67  CYS67      -0.0801
     47  N         -2.9360   -4.4300   14.8670 N.3    76  HIS76      -0.1241
     48  CA        -4.2480   -3.8120   14.8020 C.3    76  HIS76       0.1621
     49  C         -5.0010   -3.7670   16.1210 C.2    76  HIS76       0.2264
     50  O         -6.2310   -3.7230   16.1400 O.2    76  HIS76      -0.2867
     51  CB        -5.0760   -4.5170   13.7230 C.3    76  HIS76       0.0745
     52  CG        -4.4070   -4.5390   12.3850 C.ar   76  HIS76       0.0817
     53  ND1       -4.9130   -5.2310   11.3060 N.ar   76  HIS76      -0.2268
     54  CD2       -3.2660   -3.9510   11.9510 C.ar   76  HIS76       0.1154
     55  CE1       -4.1150   -5.0700   10.2670 C.ar   76  HIS76       0.1986
     56  NE2       -3.1070   -4.2970   10.6310 N.ar   76  HIS76      -0.2212
     57  N          1.7020    1.7410   16.7630 N.3    94  ASP94      -0.1239
     58  CA         1.9510    1.9310   15.3470 C.3    94  ASP94       0.1674
     59  C          1.2800    3.2100   14.8830 C.2    94  ASP94       0.2266
     60  O          0.0680    3.3700   15.0010 O.2    94  ASP94      -0.2867
     61  CB         1.4200    0.7290   14.5590 C.3    94  ASP94       0.1410
     62  CG         1.8780    0.7360   13.1160 C.2    94  ASP94       0.3668
     63  OD1        2.3970    1.7720   12.6620 O.co2  94  ASP94      -0.2456
     64  OD2        1.7080   -0.2940   12.4320 O.co2  94  ASP94      -0.2456
     65  N          0.7880    6.3180   11.8270 N.3    96  THR96      -0.1218
     66  CA         0.8450    6.7150   10.4340 C.3    96  THR96       0.1862
     67  C          0.1430    8.0470   10.3420 C.2    96  THR96       0.2287
     68  O         -1.0380    8.1670   10.6700 O.2    96  THR96      -0.2866
     69  CB         0.1520    5.7430    9.4850 C.3    96  THR96       0.1770
     70  OG1        0.7840    4.4650    9.5770 O.3    96  THR96      -0.2211
     71  CG2        0.2890    6.2450    8.0490 C.3    96  THR96       0.0375
     72  N          4.9670    6.3040    8.1760 N.3   105  ASP105     -0.1239
     73  CA         4.4550    5.1110    8.8440 C.3   105  ASP105      0.1674
     74  C          5.5430    4.4550    9.6930 C.2   105  ASP105      0.2266
     75  O          6.5820    4.0540    9.1810 O.2   105  ASP105     -0.2867
     76  CB         3.9660    4.1570    7.7490 C.3   105  ASP105      0.1410
     77  CG         3.1630    3.0070    8.2760 C.2   105  ASP105      0.3668
     78  OD1        2.9430    2.9130    9.5030 O.co2 105  ASP105     -0.2456
     79  OD2        2.7410    2.1880    7.4390 O.co2 105  ASP105     -0.2456
     80  N          0.8060  -10.3170    6.9930 N.3   165  TYR165     -0.1227
     81  CA         1.0610   -8.8940    6.8320 C.3   165  TYR165      0.1736
     82  C          2.4460   -8.6120    6.2970 C.2   165  TYR165      0.2595
     83  O          3.3880   -9.3770    6.5270 O.2   165  TYR165     -0.2718
     84  CB         0.8360   -8.1730    8.1630 C.3   165  TYR165      0.0548
     85  CG        -0.4860   -8.5550    8.7830 C.ar  165  TYR165     -0.0200
     86  CD1       -0.5670   -9.6000    9.7000 C.ar  165  TYR165     -0.0009
     87  CD2       -1.6700   -7.9300    8.3910 C.ar  165  TYR165     -0.0009
     88  CE1       -1.7930  -10.0180   10.2060 C.ar  165  TYR165      0.0417
     89  CE2       -2.9020   -8.3420    8.8920 C.ar  165  TYR165      0.0417
     90  CZ        -2.9550   -9.3870    9.7960 C.ar  165  TYR165      0.1957
     91  OH        -4.1680   -9.8130   10.2890 O.3   165  TYR165     -0.2866
     92  N          2.5660   -7.4950    5.5910 N.am  166  CYS166     -0.1970
     93  CA         3.8250   -7.1260    4.9770 C.3   166  CYS166      0.1712
     94  C          4.0610   -5.6280    4.9430 C.2   166  CYS166      0.2296
     95  O          3.1750   -4.8330    5.2730 O.2   166  CYS166     -0.2864
     96  CB         3.8440   -7.6510    3.5440 C.3   166  CYS166      0.0983
     97  SG         2.4690   -7.0040    2.5420 S.3   166  CYS166     -0.0798
     98  N          5.1020   -2.1900    2.7350 N.3   168  HIS168     -0.1241
     99  CA         4.4130   -1.7250    1.5470 C.3   168  HIS168      0.1621
    100  C          4.9750   -0.4210    1.0340 C.2   168  HIS168      0.2264
    101  O          5.6010    0.3340    1.7780 O.2   168  HIS168     -0.2867
    102  CB         2.9580   -1.5020    1.9220 C.3   168  HIS168      0.0745
    103  CG         2.7980   -0.6630    3.1530 C.ar  168  HIS168      0.0817
    104  ND1        2.8080    0.7140    3.1210 N.ar  168  HIS168     -0.2268
    105  CD2        2.7150   -1.0090    4.4590 C.ar  168  HIS168      0.1154
    106  CE1        2.7370    1.1810    4.3560 C.ar  168  HIS168      0.1986
    107  NE2        2.6820    0.1550    5.1870 N.ar  168  HIS168     -0.2212
    108  N         -1.4200    5.3620    1.5300 N.3   174  PHE174     -0.1227
    109  CA        -0.9850    4.7020    2.7570 C.3   174  PHE174      0.1736
    110  C         -0.2570    3.4220    2.3420 C.2   174  PHE174      0.2595
    111  O          0.9060    3.2130    2.6810 O.2   174  PHE174     -0.2718
    112  CB        -2.2150    4.3740    3.6140 C.3   174  PHE174      0.0547
    113  CG        -1.9030    3.8970    5.0140 C.ar  174  PHE174     -0.0202
    114  CD1       -0.6270    3.4720    5.3740 C.ar  174  PHE174     -0.0042
    115  CD2       -2.9210    3.8200    5.9600 C.ar  174  PHE174     -0.0042
    116  CE1       -0.3740    2.9740    6.6560 C.ar  174  PHE174     -0.0003
    117  CE2       -2.6780    3.3240    7.2420 C.ar  174  PHE174     -0.0003
    118  CZ        -1.4030    2.8990    7.5890 C.ar  174  PHE174     -0.0000
    119  N         -0.9500    2.5760    1.5900 N.am  175  HIS175     -0.1975
    120  CA        -0.3660    1.3310    1.1230 C.3   175  HIS175      0.1656
    121  C         -0.2980    1.3170   -0.3940 C.2   175  HIS175      0.2291
    122  O         -1.3250    1.2100   -1.0600 O.2   175  HIS175     -0.2864
    123  CB        -1.1910    0.1370    1.6080 C.3   175  HIS175      0.0771
    124  CG        -1.2790    0.0320    3.0980 C.ar  175  HIS175      0.0820
    125  ND1       -2.2440    0.6840    3.8360 N.ar  175  HIS175     -0.2267
    126  CD2       -0.5010   -0.6220    3.9920 C.ar  175  HIS175      0.1154
    127  CE1       -2.0560    0.4350    5.1190 C.ar  175  HIS175      0.1986
    128  NE2       -1.0030   -0.3550    5.2410 N.ar  175  HIS175     -0.2212
    129  N          8.3370   -3.7240    8.1460 N.3   201  GLU201     -0.1245
    130  CA         7.6760   -3.8030    9.4390 C.3   201  GLU201      0.1567
    131  C          7.3850   -5.2380    9.8380 C.2   201  GLU201      0.2260
    132  O          6.2320   -5.6340    9.9840 O.2   201  GLU201     -0.2867
    133  CB         6.3730   -3.0110    9.3600 C.3   201  GLU201      0.0388
    134  CG         5.5910   -3.3080    8.0820 C.3   201  GLU201      0.1160
    135  CD         4.3350   -2.4700    7.9510 C.2   201  GLU201      0.3649
    136  OE1        3.5040   -2.5120    8.8740 O.co2 201  GLU201     -0.2457
    137  OE2        4.1740   -1.7740    6.9270 O.co2 201  GLU201     -0.2457
    138  N        -10.8060   -6.7470   14.1130 N.3   218  TRP218     -0.1241
    139  CA        -9.5610   -5.9960   14.0050 C.3   218  TRP218      0.1605
    140  C         -8.3910   -6.6290   14.7360 C.2   218  TRP218      0.2264
    141  O         -7.3580   -6.9380   14.1380 O.2   218  TRP218     -0.2867
    142  CB        -9.7560   -4.5790   14.5470 C.3   218  TRP218      0.0550
    143  CG       -10.4740   -3.6920   13.6070 C.ar  218  TRP218      0.0003
    144  CD1      -11.7180   -3.1560   13.7650 C.ar  218  TRP218      0.0946
    145  CD2      -10.0030   -3.2520   12.3340 C.ar  218  TRP218      0.0152
    146  NE1      -12.0540   -2.4090   12.6620 N.ar  218  TRP218     -0.2442
    147  CE2      -11.0180   -2.4530   11.7670 C.ar  218  TRP218      0.0810
    148  CE3       -8.8210   -3.4610   11.6130 C.ar  218  TRP218      0.0012
    149  CZ2      -10.8860   -1.8570   10.5120 C.ar  218  TRP218      0.0191
    150  CZ3       -8.6890   -2.8710   10.3690 C.ar  218  TRP218      0.0001
    151  CH2       -9.7180   -2.0790    9.8280 C.ar  218  TRP218      0.0015
    152  N          8.6960   -0.8400   12.8700 N.3   232  GLU232     -0.1245
    153  CA         8.5010   -0.4040   11.4990 C.3   232  GLU232      0.1567
    154  C          9.1410    0.9290   11.2110 C.2   232  GLU232      0.2260
    155  O          9.1210    1.8200   12.0440 O.2   232  GLU232     -0.2867
    156  CB         7.0120   -0.2890   11.1940 C.3   232  GLU232      0.0388
    157  CG         6.6850    0.4220    9.8790 C.3   232  GLU232      0.1160
    158  CD         5.1930    0.4670    9.6010 C.2   232  GLU232      0.3649
    159  OE1        4.4070    0.4080   10.5620 O.co2 232  GLU232     -0.2457
    160  OE2        4.8070    0.5750    8.4190 O.co2 232  GLU232     -0.2457
@<TRIPOS>BOND
     1   122   121    2
     2   121   120    1
     3   100    99    1
     4   100   101    2
     5   120   119    1
     6   120   123    1
     7   108   109    1
     8    99   102    1
     9    99    98    1
    10   119   110   am
    11   123   124    1
    12   102   103    1
    13   110   111    2
    14   110   109    1
    15    27    28   ar
    16    27    25   ar
    17    97    96    1
    18   109   112    1
    19    18    17    1
    20    28    26   ar
    21   124   125   ar
    22   124   126   ar
    23   104   103   ar
    24   104   106   ar
    25   103   105   ar
    26    15    17   ar
    27    15    13   ar
    28    96    93    1
    29    25    24   ar
    30   112   113    1
    31    17    16   ar
    32   125   127   ar
    33   126   128   ar
    34    26    24   ar
    35   106   107   ar
    36   105   107   ar
    37    13    12   ar
    38    24    23    1
    39    94    93    1
    40    94    95    2
    41    93    92    1
    42   113   114   ar
    43   113   115   ar
    44    16    14   ar
    45   127   128   ar
    46   114   116   ar
    47    92    82   am
    48    12    14   ar
    49    12    11    1
    50    19    20    1
    51    19     9   am
    52    20    23    1
    53    20    21    1
    54   115   117   ar
    55    82    83    2
    56    82    81    1
    57   116   118   ar
    58     8    11    1
    59     8     9    1
    60     8     7    1
    61    81    80    1
    62    81    84    1
    63   137   135   ar
    64     9    10    2
    65    21    22    2
    66   117   118   ar
    67    79    77   ar
    68    76    77    1
    69    76    73    1
    70   135   134    1
    71   135   136   ar
    72    71    69    1
    73   134   133    1
    74   129   130    1
    75    84    85    1
    76    72    73    1
    77    77    78   ar
    78    87    85   ar
    79    87    89   ar
    80   160   158   ar
    81    85    86   ar
    82    73    74    1
    83    89    90   ar
    84    75    74    2
    85   133   130    1
    86   130   131    1
    87    69    70    1
    88    69    66    1
    89   158   157    1
    90   158   159   ar
    91    86    88   ar
    92    90    88   ar
    93    90    91    1
    94   151   150   ar
    95   151   149   ar
    96   131   132    2
    97     1     2    1
    98   157   156    1
    99     4     3    2
   100    29    30    1
   101    55    56   ar
   102    55    53   ar
   103     2     3    1
   104     2     5    1
   105    67    66    1
   106    67    68    2
   107   150   148   ar
   108    66    65    1
   109   149   147   ar
   110    56    54   ar
   111   156   153    1
   112   154   153    1
   113   154   155    2
   114    53    52   ar
   115    33    30    1
   116    33    34    1
   117    30    31    1
   118   153   152    1
   119     6     5    1
   120   148   145   ar
   121   147   145   ar
   122   147   146   ar
   123    32    31    2
   124    54    52   ar
   125   145   143   ar
   126    52    51    1
   127    64    62   ar
   128    34    35   ar
   129    34    36   ar
   130   146   144   ar
   131    63    62   ar
   132    62    61    1
   133    35    37   ar
   134    36    38   ar
   135   143   144   ar
   136   143   142    1
   137    51    48    1
   138   139   138    1
   139   139   142    1
   140   139   140    1
   141    46    45    1
   142   141   140    2
   143    37    39   ar
   144    38    39   ar
   145    61    58    1
   146    48    47    1
   147    48    49    1
   148    59    60    2
   149    59    58    1
   150    39    40    1
   151    58    57    1
   152    45    42    1
   153    49    50    2
   154    41    42    1
   155    42    43    1
   156    43    44    2
