@<TRIPOS>MOLECULE
tmp/2evdA02.pdb
 142 135 0 0 0
SMALL
GASTEIGER

@<TRIPOS>ATOM
      1  N          6.2300    1.2400   25.6090 N.3    31  PHE31      -0.1241
      2  CA         7.0710    0.2700   26.3070 C.3    31  PHE31       0.1605
      3  C          6.9230    0.3060   27.8340 C.2    31  PHE31       0.2264
      4  O          7.1500   -0.7010   28.5000 O.2    31  PHE31      -0.2867
      5  CB         8.5300    0.3850   25.8660 C.3    31  PHE31       0.0534
      6  CG         8.8080   -0.2950   24.5620 C.ar   31  PHE31      -0.0203
      7  CD1        8.9230   -1.6750   24.4990 C.ar   31  PHE31      -0.0042
      8  CD2        8.9250    0.4380   23.3890 C.ar   31  PHE31      -0.0042
      9  CE1        9.1700   -2.3050   23.2900 C.ar   31  PHE31      -0.0003
     10  CE2        9.1730   -0.1870   22.1790 C.ar   31  PHE31      -0.0003
     11  CZ         9.3060   -1.5550   22.1280 C.ar   31  PHE31      -0.0000
     12  N         11.8120   -4.1860   29.6040 N.3    39  PHE39      -0.1241
     13  CA        11.6270   -3.3110   28.4450 C.3    39  PHE39       0.1605
     14  C         12.3250   -1.9670   28.5140 C.2    39  PHE39       0.2264
     15  O         12.5200   -1.3340   27.4740 O.2    39  PHE39      -0.2867
     16  CB        10.1330   -3.1550   28.1310 C.3    39  PHE39       0.0534
     17  CG         9.4940   -4.4590   27.8430 C.ar   39  PHE39      -0.0203
     18  CD1        9.7440   -5.1060   26.6350 C.ar   39  PHE39      -0.0042
     19  CD2        8.7570   -5.1180   28.8160 C.ar   39  PHE39      -0.0042
     20  CE1        9.2160   -6.3750   26.3830 C.ar   39  PHE39      -0.0003
     21  CE2        8.2140   -6.3830   28.5590 C.ar   39  PHE39      -0.0003
     22  CZ         8.4450   -7.0130   27.3520 C.ar   39  PHE39      -0.0000
     23  N         15.1810   -1.3840   26.0840 N.3    42  ILE42      -0.1245
     24  CA        14.6550   -1.4150   24.7310 C.3    42  ILE42       0.1561
     25  C         14.0980   -0.0360   24.3370 C.2    42  ILE42       0.2260
     26  O         14.4480    0.5310   23.2750 O.2    42  ILE42      -0.2867
     27  CB        13.5790   -2.4880   24.6350 C.3    42  ILE42       0.0252
     28  CG1       14.2140   -3.8820   24.8120 C.3    42  ILE42       0.0019
     29  CG2       12.8740   -2.3910   23.3100 C.3    42  ILE42       0.0019
     30  CD1       13.1760   -5.0500   24.8410 C.3    42  ILE42       0.0001
     31  N         16.8840    2.3340   23.8320 N.3    45  ASP45      -0.1225
     32  CA        17.6060    2.2100   22.5610 C.3    45  ASP45       0.1805
     33  C         16.8480    2.9640   21.4680 C.2    45  ASP45       0.2597
     34  O         17.4480    3.7090   20.6870 O.2    45  ASP45      -0.2718
     35  CB        17.7650    0.7570   22.1110 C.3    45  ASP45       0.1424
     36  CG        18.5480    0.6530   20.8240 C.2    45  ASP45       0.3668
     37  OD1       19.7940    0.6130   20.8710 O.co2  45  ASP45      -0.2456
     38  OD2       17.9250    0.6310   19.7490 O.co2  45  ASP45      -0.2456
     39  N         15.5370    2.7600   21.4040 N.am   46  ILE46      -0.1980
     40  CA        14.7640    3.3650   20.3140 C.3    46  ILE46       0.1595
     41  C         14.7180    4.8760   20.5350 C.2    46  ILE46       0.2287
     42  O         14.9810    5.6500   19.6270 O.2    46  ILE46      -0.2864
     43  CB        13.3390    2.7670   20.2150 C.3    46  ILE46       0.0276
     44  CG1       13.4040    1.2610   19.8490 C.3    46  ILE46       0.0022
     45  CG2       12.5050    3.5500   19.2100 C.3    46  ILE46       0.0022
     46  CD1       12.1420    0.4270   20.1420 C.3    46  ILE46       0.0001
     47  N         19.7730    1.7480   12.8880 N.3    93  TRP93      -0.1241
     48  CA        19.2830    0.9440   14.0020 C.3    93  TRP93       0.1605
     49  C         17.8330    1.2370   14.3570 C.2    93  TRP93       0.2264
     50  O         17.0740    0.3180   14.7590 O.2    93  TRP93      -0.2867
     51  CB        20.2200    1.0820   15.2060 C.3    93  TRP93       0.0550
     52  CG        21.5090    0.2740   15.0190 C.ar   93  TRP93       0.0003
     53  CD1       22.7170    0.7310   14.5780 C.ar   93  TRP93       0.0946
     54  CD2       21.6550   -1.1480   15.1770 C.ar   93  TRP93       0.0152
     55  NE1       23.6220   -0.3130   14.4980 N.ar   93  TRP93      -0.2442
     56  CE2       22.9930   -1.4720   14.8740 C.ar   93  TRP93       0.0810
     57  CE3       20.7800   -2.1780   15.5740 C.ar   93  TRP93       0.0012
     58  CZ2       23.4800   -2.7810   14.9630 C.ar   93  TRP93       0.0191
     59  CZ3       21.2560   -3.4630   15.6740 C.ar   93  TRP93       0.0001
     60  CH2       22.6060   -3.7620   15.3740 C.ar   93  TRP93       0.0015
     61  N         14.3750   -1.3670   14.8010 N.3    97  GLY97      -0.1225
     62  CA        13.4180   -1.3660   15.9050 C.3    97  GLY97       0.1811
     63  C         11.9900   -1.1360   15.4040 C.2    97  GLY97       0.2280
     64  O         11.0400   -1.7510   15.9160 O.2    97  GLY97      -0.2866
     65  N         10.8240   -4.2290   13.6600 N.3   100  PHE100     -0.1227
     66  CA        10.4130   -5.1670   14.6870 C.3   100  PHE100      0.1736
     67  C          8.9770   -4.9040   15.1060 C.2   100  PHE100      0.2595
     68  O          8.1490   -5.8410   15.1370 O.2   100  PHE100     -0.2718
     69  CB        11.3240   -5.1940   15.9290 C.3   100  PHE100      0.0547
     70  CG        10.8130   -6.1130   17.0030 C.ar  100  PHE100     -0.0202
     71  CD1       11.2990   -7.4150   17.1120 C.ar  100  PHE100     -0.0042
     72  CD2        9.7940   -5.6850   17.8760 C.ar  100  PHE100     -0.0042
     73  CE1       10.7870   -8.2740   18.1020 C.ar  100  PHE100     -0.0003
     74  CE2        9.2620   -6.5270   18.8470 C.ar  100  PHE100     -0.0003
     75  CZ         9.7570   -7.8310   18.9770 C.ar  100  PHE100     -0.0000
     76  N          8.6600   -3.6570   15.4400 N.am  101  ILE101     -0.1980
     77  CA         7.3070   -3.3400   15.9220 C.3   101  ILE101      0.1595
     78  C          6.2770   -3.6720   14.8250 C.2   101  ILE101      0.2287
     79  O          5.1970   -4.2700   15.0900 O.2   101  ILE101     -0.2864
     80  CB         7.1980   -1.8610   16.3890 C.3   101  ILE101      0.0276
     81  CG1        7.9880   -1.6500   17.6800 C.3   101  ILE101      0.0022
     82  CG2        5.7150   -1.4330   16.6280 C.3   101  ILE101      0.0022
     83  CD1        8.4100   -0.2400   17.8710 C.3   101  ILE101      0.0001
     84  N          6.3330  -12.2820   18.5520 N.3   125  ALA125     -0.1245
     85  CA         7.5630  -11.5690   18.9120 C.3   125  ALA125      0.1562
     86  C          8.7810  -12.2520   18.3230 C.2   125  ALA125      0.2260
     87  O          9.6750  -11.5980   17.7960 O.2   125  ALA125     -0.2867
     88  CB         7.6620  -11.4530   20.4360 C.3   125  ALA125      0.0290
     89  N         15.7530   -8.1770   13.6000 N.3   133  LEU133     -0.1245
     90  CA        16.8760   -7.9340   14.4820 C.3   133  LEU133      0.1561
     91  C         17.9170   -9.0270   14.5570 C.2   133  LEU133      0.2260
     92  O         19.0940   -8.7120   14.6440 O.2   133  LEU133     -0.2867
     93  CB        16.3660   -7.6250   15.8860 C.3   133  LEU133      0.0270
     94  CG        15.7150   -6.2470   16.0700 C.3   133  LEU133      0.0019
     95  CD1       14.9940   -6.2570   17.4080 C.3   133  LEU133      0.0001
     96  CD2       16.7720   -5.1830   16.0580 C.3   133  LEU133      0.0001
     97  N         22.5780   -9.4500   15.6860 N.3   137  HIS137     -0.1241
     98  CA        22.9460   -9.7720   17.0370 C.3   137  HIS137      0.1621
     99  C         23.8390  -11.0120   17.0550 C.2   137  HIS137      0.2264
    100  O         23.4910  -12.0380   16.4590 O.2   137  HIS137     -0.2867
    101  CB        21.6970  -10.0900   17.8620 C.3   137  HIS137      0.0745
    102  CG        20.8170   -8.9050   18.1080 C.ar  137  HIS137      0.0817
    103  ND1       19.6160   -8.9900   18.7880 N.ar  137  HIS137     -0.2268
    104  CD2       20.9670   -7.6050   17.7570 C.ar  137  HIS137      0.1154
    105  CE1       19.0730   -7.7850   18.8550 C.ar  137  HIS137      0.1986
    106  NE2       19.8740   -6.9280   18.2440 N.ar  137  HIS137     -0.2212
    107  N         17.5530  -11.8280   24.4290 N.3   145  PHE145     -0.1241
    108  CA        16.2180  -11.7320   23.8220 C.3   145  PHE145      0.1605
    109  C         15.3180  -12.9190   24.1990 C.2   145  PHE145      0.2264
    110  O         14.1860  -12.7430   24.6800 O.2   145  PHE145     -0.2867
    111  CB        16.2620  -11.6160   22.2990 C.3   145  PHE145      0.0534
    112  CG        14.8900  -11.8020   21.6710 C.ar  145  PHE145     -0.0203
    113  CD1       13.9610  -10.7650   21.6890 C.ar  145  PHE145     -0.0042
    114  CD2       14.4930  -13.0440   21.1700 C.ar  145  PHE145     -0.0042
    115  CE1       12.6670  -10.9440   21.1760 C.ar  145  PHE145     -0.0003
    116  CE2       13.2110  -13.2320   20.6470 C.ar  145  PHE145     -0.0003
    117  CZ        12.2990  -12.1870   20.6500 C.ar  145  PHE145     -0.0000
    118  N         14.2860  -12.4240   27.8270 N.3   148  ALA148     -0.1231
    119  CA        13.3920  -11.2410   27.8320 C.3   148  ALA148      0.1694
    120  C         11.9970  -11.5820   27.3330 C.2   148  ALA148      0.2591
    121  O         10.9960  -11.0730   27.8370 O.2   148  ALA148     -0.2718
    122  CB        13.9850  -10.1240   26.9550 C.3   148  ALA148      0.0304
    123  N         11.9440  -12.4490   26.3280 N.am  149  LEU149     -0.1980
    124  CA        10.6760  -12.8930   25.7590 C.3   149  LEU149      0.1596
    125  C          9.6800  -13.3550   26.8080 C.2   149  LEU149      0.2287
    126  O          8.4880  -13.1780   26.6370 O.2   149  LEU149     -0.2864
    127  CB        10.9170  -13.9840   24.7160 C.3   149  LEU149      0.0297
    128  CG         9.7240  -14.5620   23.9590 C.3   149  LEU149      0.0022
    129  CD1        9.1240  -13.4590   23.1000 C.3   149  LEU149      0.0001
    130  CD2       10.1820  -15.7550   23.1120 C.3   149  LEU149      0.0001
    131  N          7.0340  -10.9060   28.2600 N.3   152  ALA152     -0.1245
    132  CA         5.8850  -10.6000   27.3900 C.3   152  ALA152      0.1562
    133  C          4.5190  -10.8500   28.0570 C.2   152  ALA152      0.2260
    134  O          4.2850  -11.9310   28.6110 O.2   152  ALA152     -0.2867
    135  CB         5.9800  -11.3890   26.0680 C.3   152  ALA152      0.0290
    136  N         26.1890   -7.1990   16.9360 N.3   204  VAL204     -0.1245
    137  CA        26.5580   -6.6400   18.2350 C.3   204  VAL204      0.1561
    138  C         26.4760   -7.6740   19.3620 C.2   204  VAL204      0.2260
    139  O         25.6860   -8.6160   19.3600 O.2   204  VAL204     -0.2867
    140  CB        25.7660   -5.3360   18.5740 C.3   204  VAL204      0.0252
    141  CG1       26.2380   -4.1590   17.6940 C.3   204  VAL204      0.0019
    142  CG2       24.2570   -5.5390   18.4900 C.3   204  VAL204      0.0019
@<TRIPOS>BOND
     1    47    48    1
     2    89    90    1
     3    65    66    1
     4    48    49    1
     5    48    51    1
     6    49    50    2
     7    90    91    1
     8    90    93    1
     9    55    53   ar
    10    55    56   ar
    11    91    92    2
    12    53    52   ar
    13    66    67    1
    14    66    69    1
    15    61    62    1
    16    78    79    2
    17    78    77    1
    18    56    58   ar
    19    56    54   ar
    20    58    60   ar
    21    52    54   ar
    22    52    51    1
    23    67    68    2
    24    67    76   am
    25    54    57   ar
    26    60    59   ar
    27    63    62    1
    28    63    64    2
    29    76    77    1
    30    57    59   ar
    31    97    98    1
    32    93    94    1
    33    77    80    1
    34    69    70    1
    35    96    94    1
    36    94    95    1
    37    80    82    1
    38    80    81    1
    39   100    99    2
    40   136   137    1
    41    70    71   ar
    42    70    72   ar
    43    98    99    1
    44    98   101    1
    45    71    73   ar
    46    81    83    1
    47   141   140    1
    48   104   102   ar
    49   104   106   ar
    50    87    86    2
    51   101   102    1
    52    72    74   ar
    53    73    75   ar
    54   102   103   ar
    55   137   140    1
    56   137   138    1
    57   106   105   ar
    58    86    85    1
    59   142   140    1
    60    84    85    1
    61   103   105   ar
    62    74    75   ar
    63    85    88    1
    64    45    43    1
    65   139   138    2
    66    42    41    2
    67    38    36   ar
    68    44    46    1
    69    44    43    1
    70    43    40    1
    71    40    41    1
    72    40    39    1
    73   116   117   ar
    74   116   114   ar
    75   117   115   ar
    76    34    33    2
    77    36    37   ar
    78    36    35    1
    79   114   112   ar
    80   115   113   ar
    81    39    33   am
    82    33    32    1
    83   112   113   ar
    84   112   111    1
    85    35    32    1
    86    11    10   ar
    87    11     9   ar
    88    10     8   ar
    89   111   108    1
    90    32    31    1
    91   129   128    1
    92   130   128    1
    93    26    25    2
    94     9     7   ar
    95    29    27    1
    96     8     6   ar
    97   108   109    1
    98   108   107    1
    99   128   127    1
   100   109   110    2
   101    25    24    1
   102     7     6   ar
   103     6     5    1
   104    27    24    1
   105    27    28    1
   106   127   124    1
   107    24    23    1
   108    28    30    1
   109     1     2    1
   110   124   123    1
   111   124   125    1
   112     5     2    1
   113   135   132    1
   114     2     3    1
   115   123   120   am
   116    20    18   ar
   117    20    22   ar
   118    18    17   ar
   119   126   125    2
   120   122   119    1
   121   120   119    1
   122   120   121    2
   123    22    21   ar
   124   132   133    1
   125   132   131    1
   126    15    14    2
   127   118   119    1
   128     3     4    2
   129    17    16    1
   130    17    19   ar
   131   133   134    2
   132    16    13    1
   133    13    14    1
   134    13    12    1
   135    21    19   ar
