@<TRIPOS>MOLECULE
tmp/2eveA00.pdb
 138 136 0 0 0
SMALL
GASTEIGER

@<TRIPOS>ATOM
      1  N         23.4540   23.3670   32.7070 N.3     5  LYS5       -0.1231
      2  CA        22.1340   23.9860   32.6000 C.3     5  LYS5        0.1693
      3  C         21.2070   23.4010   31.5400 C.2     5  LYS5        0.2593
      4  O         21.6510   22.9780   30.4740 O.2     5  LYS5       -0.2718
      5  CB        22.2860   25.4820   32.3140 C.3     5  LYS5        0.0285
      6  CG        23.0990   26.2450   33.3370 C.3     5  LYS5        0.0035
      7  CD        23.1490   27.7260   32.9840 C.3     5  LYS5        0.0206
      8  CE        23.9850   28.5030   33.9830 C.3     5  LYS5        0.1093
      9  NZ        24.0550   29.9510   33.6470 N.3     5  LYS5       -0.1314
     10  N         19.9100   23.4050   31.8440 N.am    6  SER6       -0.1938
     11  CA        18.8910   22.9110   30.9270 C.3     6  SER6        0.2055
     12  C         17.5220   23.4950   31.2590 C.2     6  SER6        0.2642
     13  O         17.1450   23.5800   32.4260 O.2     6  SER6       -0.2714
     14  CB        18.8020   21.3850   30.9880 C.3     6  SER6        0.2130
     15  OG        17.8470   20.8990   30.0490 O.3     6  SER6       -0.2179
     16  N         16.7870   23.9030   30.2300 N.am    7  GLU7       -0.1976
     17  CA        15.4430   24.4320   30.4290 C.3     7  GLU7        0.1602
     18  C         14.5750   23.2060   30.6930 C.2     7  GLU7        0.2287
     19  O         14.5170   22.2950   29.8690 O.2     7  GLU7       -0.2864
     20  CB        14.9560   25.1560   29.1760 C.3     7  GLU7        0.0415
     21  CG        15.7370   26.4060   28.8380 C.3     7  GLU7        0.1163
     22  CD        15.1560   27.1500   27.6520 C.2     7  GLU7        0.3649
     23  OE1       15.7350   28.1860   27.2640 O.co2   7  GLU7       -0.2457
     24  OE2       14.1230   26.7020   27.1120 O.co2   7  GLU7       -0.2457
     25  N         12.2510   21.6570   28.1840 N.3    10  GLU10      -0.1231
     26  CA        12.9500   20.9630   27.1110 C.3    10  GLU10       0.1699
     27  C         13.5120   19.6470   27.6390 C.2    10  GLU10       0.2592
     28  O         13.3520   18.5980   27.0180 O.2    10  GLU10      -0.2718
     29  CB        14.0850   21.8330   26.5650 C.3    10  GLU10       0.0402
     30  CG        14.7860   21.2300   25.3560 C.3    10  GLU10       0.1161
     31  CD        15.8450   22.1470   24.7690 C.2    10  GLU10       0.3649
     32  OE1       15.8690   23.3420   25.1340 O.co2  10  GLU10      -0.2457
     33  OE2       16.6450   21.6720   23.9370 O.co2  10  GLU10      -0.2457
     34  N         14.1770   19.7110   28.7870 N.am   11  PHE11      -0.1976
     35  CA        14.7460   18.5200   29.4110 C.3    11  PHE11       0.1639
     36  C         14.9300   18.8250   30.8910 C.2    11  PHE11       0.2290
     37  O         15.7300   19.6810   31.2650 O.2    11  PHE11      -0.2864
     38  CB        16.0820   18.1620   28.7520 C.3    11  PHE11       0.0560
     39  CG        16.6860   16.8790   29.2520 C.ar   11  PHE11      -0.0200
     40  CD1       15.9730   15.6840   29.1950 C.ar   11  PHE11      -0.0042
     41  CD2       17.9770   16.8660   29.7710 C.ar   11  PHE11      -0.0042
     42  CE1       16.5400   14.4900   29.6480 C.ar   11  PHE11      -0.0003
     43  CE2       18.5530   15.6820   30.2250 C.ar   11  PHE11      -0.0003
     44  CZ        17.8340   14.4920   30.1640 C.ar   11  PHE11      -0.0000
     45  N         21.2450   11.6490   26.2640 N.3    23  ARG23      -0.1231
     46  CA        22.3050   12.4260   25.6370 C.3    23  ARG23       0.1694
     47  C         22.1670   13.8980   25.9940 C.2    23  ARG23       0.2592
     48  O         21.0770   14.4680   25.9240 O.2    23  ARG23      -0.2718
     49  CB        22.2580   12.2820   24.1130 C.3    23  ARG23       0.0321
     50  CG        23.3660   13.0480   23.3880 C.3    23  ARG23       0.0489
     51  CD        23.2730   12.8600   21.8830 C.3    23  ARG23       0.2205
     52  NE        22.0740   13.4840   21.3320 N.pl3  23  ARG23      -0.0865
     53  CZ        21.3750   12.9820   20.3210 C.cat  23  ARG23       0.5346
     54  NH1       21.7540   11.8430   19.7530 N.pl3  23  ARG23       0.1354
     55  NH2       20.3040   13.6200   19.8720 N.pl3  23  ARG23       0.1354
     56  N         23.2800   14.5060   26.3890 N.am   24  TRP24      -0.1962
     57  CA        23.3040   15.9230   26.7170 C.3    24  TRP24       0.1771
     58  C         23.9110   16.5690   25.4840 C.2    24  TRP24       0.2620
     59  O         25.0580   16.2990   25.1410 O.2    24  TRP24      -0.2715
     60  CB        24.2010   16.1810   27.9260 C.3    24  TRP24       0.0590
     61  CG        23.9700   17.5200   28.5670 C.ar   24  TRP24       0.0006
     62  CD1       24.5090   18.7210   28.2000 C.ar   24  TRP24       0.0946
     63  CD2       23.1080   17.7870   29.6770 C.ar   24  TRP24       0.0152
     64  NE1       24.0280   19.7260   29.0180 N.ar   24  TRP24      -0.2442
     65  CE2       23.1640   19.1770   29.9290 C.ar   24  TRP24       0.0810
     66  CE3       22.2840   16.9860   30.4770 C.ar   24  TRP24       0.0012
     67  CZ2       22.4310   19.7800   30.9580 C.ar   24  TRP24       0.0191
     68  CZ3       21.5560   17.5850   31.5000 C.ar   24  TRP24       0.0001
     69  CH2       21.6330   18.9690   31.7270 C.ar   24  TRP24       0.0015
     70  N         23.1430   17.4100   24.8050 N.am   25  ASP25      -0.1957
     71  CA        23.6500   18.0470   23.6020 C.3    25  ASP25       0.1840
     72  C         23.2640   19.5110   23.5450 C.2    25  ASP25       0.2623
     73  O         22.7990   20.0690   24.5320 O.2    25  ASP25      -0.2715
     74  CB        23.1110   17.3170   22.3700 C.3    25  ASP25       0.1450
     75  CG        21.6030   17.1640   22.3950 C.2    25  ASP25       0.3671
     76  OD1       20.9130   18.1480   22.7320 O.co2  25  ASP25      -0.2456
     77  OD2       21.1010   16.0650   22.0710 O.co2  25  ASP25      -0.2456
     78  N         23.4780   20.1350   22.3910 N.am   26  GLY26      -0.1940
     79  CA        23.1110   21.5320   22.2370 C.3    26  GLY26       0.2014
     80  C         23.9640   22.5500   22.9670 C.2    26  GLY26       0.2639
     81  O         23.5350   23.6950   23.1540 O.2    26  GLY26      -0.2714
     82  N         25.1560   22.1540   23.4020 N.am   27  VAL27      -0.1963
     83  CA        26.0430   23.0970   24.0730 C.3    27  VAL27       0.1727
     84  C         26.7780   23.7980   22.9360 C.2    27  VAL27       0.2616
     85  O         27.4940   23.1620   22.1600 O.2    27  VAL27      -0.2715
     86  CB        27.0200   22.3760   25.0140 C.3    27  VAL27       0.0290
     87  CG1       27.9750   23.3800   25.6420 C.3    27  VAL27       0.0023
     88  CG2       26.2260   21.6560   26.1060 C.3    27  VAL27       0.0023
     89  N         26.5790   25.1100   22.8350 N.am   28  ARG28      -0.1963
     90  CA        27.1570   25.8920   21.7490 C.3    28  ARG28       0.1729
     91  C         27.9880   27.0860   22.1890 C.2    28  ARG28       0.2616
     92  O         27.9370   28.1520   21.5780 O.2    28  ARG28      -0.2715
     93  CB        26.0290   26.3580   20.8250 C.3    28  ARG28       0.0348
     94  CG        25.2720   25.2050   20.1650 C.3    28  ARG28       0.0492
     95  CD        26.1210   24.5410   19.0860 C.3    28  ARG28       0.2205
     96  NE        25.4320   23.4490   18.3990 N.pl3  28  ARG28      -0.0865
     97  CZ        25.3670   22.1980   18.8450 C.cat  28  ARG28       0.5346
     98  NH1       25.9500   21.8640   19.9890 N.pl3  28  ARG28       0.1354
     99  NH2       24.7320   21.2730   18.1350 N.pl3  28  ARG28       0.1354
    100  N         28.7550   26.8970   23.2530 N.am   29  ASN29      -0.1972
    101  CA        29.6400   27.9270   23.7790 C.3    29  ASN29       0.1688
    102  C         30.9740   27.1940   23.8760 C.2    29  ASN29       0.2292
    103  O         31.0340   26.0940   24.4260 O.2    29  ASN29      -0.2864
    104  CB        29.1350   28.3770   25.1560 C.3    29  ASN29       0.1181
    105  CG        30.1160   29.2700   25.8830 C.2    29  ASN29       0.2629
    106  OD1       31.1720   28.8210   26.3140 O.2    29  ASN29      -0.2716
    107  ND2       29.7680   30.5440   26.0240 N.am   29  ASN29      -0.0877
    108  N         17.1350   26.0660   34.0320 N.3    49  SER49      -0.1217
    109  CA        17.2560   27.4410   33.5580 C.3    49  SER49       0.1889
    110  C         16.0260   27.9110   32.7800 C.2    49  SER49       0.2288
    111  O         15.2340   27.0970   32.3100 O.2    49  SER49      -0.2866
    112  CB        18.4980   27.5580   32.6700 C.3    49  SER49       0.2089
    113  OG        18.3920   26.6990   31.5440 O.3    49  SER49      -0.2183
    114  N         19.5860   23.0600   17.4650 N.3    79  TYR79      -0.1241
    115  CA        21.0130   23.2890   17.6720 C.3    79  TYR79       0.1605
    116  C         21.8240   22.9890   16.4260 C.2    79  TYR79       0.2264
    117  O         23.0210   22.7230   16.4880 O.2    79  TYR79      -0.2867
    118  CB        21.5080   22.4520   18.8490 C.3    79  TYR79       0.0534
    119  CG        20.7190   22.7310   20.1000 C.ar   79  TYR79      -0.0201
    120  CD1       20.7540   23.9900   20.7050 C.ar   79  TYR79      -0.0009
    121  CD2       19.8820   21.7600   20.6460 C.ar   79  TYR79      -0.0009
    122  CE1       19.9690   24.2750   21.8190 C.ar   79  TYR79       0.0417
    123  CE2       19.0920   22.0340   21.7560 C.ar   79  TYR79       0.0417
    124  CZ        19.1380   23.2900   22.3380 C.ar   79  TYR79       0.1957
    125  OH        18.3430   23.5660   23.4260 O.3    79  TYR79      -0.2866
    126  N         27.1880   27.7560   30.6040 N.3   130  SER130     -0.1202
    127  CA        26.1720   26.7300   30.8530 C.3   130  SER130      0.2020
    128  C         26.7340   25.4160   31.3960 C.2   130  SER130      0.2618
    129  O         25.9840   24.5750   31.8940 O.2   130  SER130     -0.2717
    130  CB        25.3880   26.4520   29.5680 C.3   130  SER130      0.2103
    131  OG        26.2540   26.0180   28.5350 O.3   130  SER130     -0.2182
    132  N         28.0450   25.2320   31.2690 N.am  131  VAL131     -0.1979
    133  CA        28.7250   24.0380   31.7760 C.3   131  VAL131      0.1595
    134  C         29.9330   24.5620   32.5430 C.2   131  VAL131      0.2287
    135  O         30.7440   25.3160   32.0000 O.2   131  VAL131     -0.2864
    136  CB        29.1970   23.1030   30.6400 C.3   131  VAL131      0.0276
    137  CG1       29.8930   21.8870   31.2320 C.3   131  VAL131      0.0022
    138  CG2       28.0060   22.6670   29.7910 C.3   131  VAL131      0.0022
@<TRIPOS>BOND
     1   116   117    2
     2   116   115    1
     3   114   115    1
     4   115   118    1
     5    99    97    1
     6    96    97    2
     7    96    95    1
     8    97    98    1
     9   118   119    1
    10    95    94    1
    11    54    53    1
    12    55    53    1
    13   119   121   ar
    14   119   120   ar
    15    94    93    1
    16    53    52    2
    17   121   123   ar
    18   120   122   ar
    19    93    90    1
    20    52    51    1
    21    92    91    2
    22    90    91    1
    23    90    89    1
    24   123   124   ar
    25   122   124   ar
    26    51    50    1
    27    77    75   ar
    28    85    84    2
    29    91   100   am
    30    79    78    1
    31    79    80    1
    32   124   125    1
    33    74    75    1
    34    74    71    1
    35    78    72   am
    36    75    76   ar
    37    89    84   am
    38    84    83    1
    39    80    81    2
    40    80    82   am
    41   100   101    1
    42    50    49    1
    43    82    83    1
    44    72    71    1
    45    72    73    2
    46    71    70    1
    47   101   102    1
    48   101   104    1
    49   102   103    2
    50    33    31   ar
    51    83    86    1
    52    49    46    1
    53    31    32   ar
    54    31    30    1
    55    70    58   am
    56    86    87    1
    57    86    88    1
    58    59    58    2
    59   104   105    1
    60    30    29    1
    61    58    57    1
    62    46    47    1
    63    46    45    1
    64   105   107   am
    65   105   106    2
    66    48    47    2
    67    47    56   am
    68    56    57    1
    69    29    26    1
    70    57    60    1
    71    28    27    2
    72    26    27    1
    73    26    25    1
    74    24    22   ar
    75    23    22   ar
    76    27    34   am
    77    22    21    1
    78    60    61    1
    79    62    61   ar
    80    62    64   ar
    81   131   130    1
    82    61    63   ar
    83    38    39    1
    84    38    35    1
    85    34    35    1
    86    21    20    1
    87    64    65   ar
    88    20    17    1
    89    40    39   ar
    90    40    42   ar
    91    39    41   ar
    92    35    36    1
    93   130   127    1
    94    42    44   ar
    95    63    65   ar
    96    63    66   ar
    97    41    43   ar
    98   138   136    1
    99    19    18    2
   100    65    67   ar
   101    15    14    1
   102    44    43   ar
   103    16    17    1
   104    16    12   am
   105    17    18    1
   106     4     3    2
   107    66    68   ar
   108   126   127    1
   109   136   137    1
   110   136   133    1
   111   127   128    1
   112    36    37    2
   113    11    14    1
   114    11    12    1
   115    11    10    1
   116    67    69   ar
   117    12    13    2
   118   132   128   am
   119   132   133    1
   120   128   129    2
   121    68    69   ar
   122     3    10   am
   123     3     2    1
   124   113   112    1
   125   133   134    1
   126   135   134    2
   127   111   110    2
   128     5     2    1
   129     5     6    1
   130     2     1    1
   131   112   109    1
   132   110   109    1
   133     7     6    1
   134     7     8    1
   135   109   108    1
   136     9     8    1
