@<TRIPOS>MOLECULE
tmp/2eveA01.pdb
 79 73 0 0 0
SMALL
GASTEIGER

@<TRIPOS>ATOM
      1  N         23.4540   23.3670   32.7070 N.3     5  LYS5       -0.1245
      2  CA        22.1340   23.9860   32.6000 C.3     5  LYS5        0.1561
      3  C         21.2070   23.4010   31.5400 C.2     5  LYS5        0.2260
      4  O         21.6510   22.9780   30.4740 O.2     5  LYS5       -0.2867
      5  CB        22.2860   25.4820   32.3140 C.3     5  LYS5        0.0271
      6  CG        23.0990   26.2450   33.3370 C.3     5  LYS5        0.0035
      7  CD        23.1490   27.7260   32.9840 C.3     5  LYS5        0.0206
      8  CE        23.9850   28.5030   33.9830 C.3     5  LYS5        0.1093
      9  NZ        24.0550   29.9510   33.6470 N.3     5  LYS5       -0.1314
     10  N         20.9660   21.9060   36.6930 N.3    47  TYR47      -0.1241
     11  CA        20.3880   23.2220   36.9400 C.3    47  TYR47       0.1605
     12  C         19.2840   23.5820   35.9470 C.2    47  TYR47       0.2264
     13  O         19.4930   23.5640   34.7330 O.2    47  TYR47      -0.2867
     14  CB        21.5120   24.2670   36.9020 C.3    47  TYR47       0.0534
     15  CG        21.0690   25.6960   37.1200 C.ar   47  TYR47      -0.0201
     16  CD1       20.5730   26.4630   36.0670 C.ar   47  TYR47      -0.0009
     17  CD2       21.1470   26.2790   38.3820 C.ar   47  TYR47      -0.0009
     18  CE1       20.1620   27.7820   36.2680 C.ar   47  TYR47       0.0417
     19  CE2       20.7400   27.5930   38.5940 C.ar   47  TYR47       0.0417
     20  CZ        20.2510   28.3350   37.5380 C.ar   47  TYR47       0.1957
     21  OH        19.8490   29.6300   37.7500 O.3    47  TYR47      -0.2866
     22  N         17.1350   26.0660   34.0320 N.3    49  SER49      -0.1202
     23  CA        17.2560   27.4410   33.5580 C.3    49  SER49       0.2020
     24  C         16.0260   27.9110   32.7800 C.2    49  SER49       0.2619
     25  O         15.2340   27.0970   32.3100 O.2    49  SER49      -0.2717
     26  CB        18.4980   27.5580   32.6700 C.3    49  SER49       0.2103
     27  OG        18.3920   26.6990   31.5440 O.3    49  SER49      -0.2182
     28  N         15.8790   29.2270   32.6450 N.am   50  SER50      -0.1951
     29  CA        14.7530   29.8200   31.9180 C.3    50  SER50       0.1924
     30  C         13.4230   29.1780   32.2920 C.2    50  SER50       0.2314
     31  O         12.7360   28.6140   31.4410 O.2    50  SER50      -0.2863
     32  CB        14.9660   29.6810   30.4070 C.3    50  SER50       0.2116
     33  OG        16.1670   30.3090   29.9960 O.3    50  SER50      -0.2180
     34  N         14.0360   28.6460   38.7170 N.3    54  PRO54      -0.2116
     35  CA        15.4150   28.3190   38.3430 C.3    54  PRO54       0.1372
     36  C         16.2780   27.9150   39.5310 C.2    54  PRO54       0.2244
     37  O         16.1300   28.4480   40.6290 O.2    54  PRO54      -0.2868
     38  CB        15.9040   29.6070   37.6870 C.3    54  PRO54       0.0268
     39  CG        15.1760   30.6600   38.4710 C.3    54  PRO54       0.0207
     40  CD        13.7780   30.0870   38.5440 C.3    54  PRO54       0.0892
     41  N         18.3800   30.0390   42.5160 N.3   108  LEU108     -0.1245
     42  CA        19.5540   30.8240   42.1760 C.3   108  LEU108      0.1561
     43  C         19.8120   31.8950   43.2330 C.2   108  LEU108      0.2260
     44  O         20.9460   32.0820   43.6770 O.2   108  LEU108     -0.2867
     45  CB        19.3630   31.4810   40.8080 C.3   108  LEU108      0.0270
     46  CG        20.4750   32.4150   40.3270 C.3   108  LEU108      0.0019
     47  CD1       21.7750   31.6450   40.1590 C.3   108  LEU108      0.0001
     48  CD2       20.0560   33.0500   39.0100 C.3   108  LEU108      0.0001
     49  N         28.2590   30.3650   38.1970 N.3   122  LEU122     -0.1245
     50  CA        26.8060   30.5030   38.2240 C.3   122  LEU122      0.1561
     51  C         26.3240   31.7590   38.9420 C.2   122  LEU122      0.2260
     52  O         25.3440   32.3800   38.5250 O.2   122  LEU122     -0.2867
     53  CB        26.1730   29.2780   38.8970 C.3   122  LEU122      0.0270
     54  CG        24.6430   29.1940   38.9010 C.3   122  LEU122      0.0019
     55  CD1       24.1650   28.8360   37.5040 C.3   122  LEU122      0.0001
     56  CD2       24.1730   28.1400   39.8990 C.3   122  LEU122      0.0001
     57  N         28.1310   36.2900   33.9700 N.3   127  SER127     -0.1202
     58  CA        28.4440   34.9280   33.5640 C.3   127  SER127      0.2020
     59  C         27.3230   34.3070   32.7430 C.2   127  SER127      0.2618
     60  O         26.1490   34.3810   33.1100 O.2   127  SER127     -0.2717
     61  CB        28.7220   34.0520   34.7870 C.3   127  SER127      0.2103
     62  OG        29.0050   32.7190   34.3940 O.3   127  SER127     -0.2182
     63  N         27.6980   33.6940   31.6260 N.am  128  ARG128     -0.1979
     64  CA        26.7400   33.0410   30.7440 C.3   128  ARG128      0.1597
     65  C         27.2340   31.6460   30.3730 C.2   128  ARG128      0.2287
     66  O         26.9220   31.1220   29.3030 O.2   128  ARG128     -0.2864
     67  CB        26.5210   33.8900   29.4910 C.3   128  ARG128      0.0334
     68  CG        25.6130   35.0920   29.7290 C.3   128  ARG128      0.0492
     69  CD        25.6130   36.0370   28.5400 C.3   128  ARG128      0.2205
     70  NE        24.5110   36.9990   28.5820 N.pl3 128  ARG128     -0.0865
     71  CZ        24.2770   37.8430   29.5830 C.cat 128  ARG128      0.5346
     72  NH1       23.2480   38.6790   29.5170 N.pl3 128  ARG128      0.1354
     73  NH2       25.0620   37.8510   30.6520 N.pl3 128  ARG128      0.1354
     74  N         27.1880   27.7560   30.6040 N.3   130  SER130     -0.1217
     75  CA        26.1720   26.7300   30.8530 C.3   130  SER130      0.1889
     76  C         26.7340   25.4160   31.3960 C.2   130  SER130      0.2288
     77  O         25.9840   24.5750   31.8940 O.2   130  SER130     -0.2866
     78  CB        25.3880   26.4520   29.5680 C.3   130  SER130      0.2089
     79  OG        26.2540   26.0180   28.5350 O.3   130  SER130     -0.2183
@<TRIPOS>BOND
     1    79    78    1
     2    69    70    1
     3    69    68    1
     4    70    71    2
     5    66    65    2
     6    67    68    1
     7    67    64    1
     8    72    71    1
     9    78    75    1
    10    71    73    1
    11    33    32    1
    12    65    64    1
    13    32    29    1
    14     4     3    2
    15    74    75    1
    16    64    63    1
    17    75    76    1
    18    76    77    2
    19    31    30    2
    20     3     2    1
    21    27    26    1
    22    63    59   am
    23    29    30    1
    24    29    28    1
    25    25    24    2
    26     5     2    1
    27     5     6    1
    28     2     1    1
    29    28    24   am
    30    26    23    1
    31    59    60    2
    32    59    58    1
    33    24    23    1
    34     7     6    1
    35     7     8    1
    36    23    22    1
    37    58    57    1
    38    58    61    1
    39     9     8    1
    40    62    61    1
    41    13    12    2
    42    12    11    1
    43    16    18   ar
    44    16    15   ar
    45    18    20   ar
    46    10    11    1
    47    14    11    1
    48    14    15    1
    49    15    17   ar
    50    55    54    1
    51    20    21    1
    52    20    19   ar
    53    38    35    1
    54    38    39    1
    55    49    50    1
    56    50    53    1
    57    50    51    1
    58    35    34    1
    59    35    36    1
    60    17    19   ar
    61    39    40    1
    62    52    51    2
    63    40    34    1
    64    53    54    1
    65    54    56    1
    66    48    46    1
    67    36    37    2
    68    47    46    1
    69    46    45    1
    70    45    42    1
    71    42    41    1
    72    42    43    1
    73    43    44    2
