@<TRIPOS>MOLECULE
tmp/2evlA01.pdb
 221 213 0 0 0
SMALL
GASTEIGER

@<TRIPOS>ATOM
      1  N          6.1770    1.1160   25.5810 N.3    31  PHE31      -0.1241
      2  CA         7.0560    0.1690   26.2840 C.3    31  PHE31       0.1605
      3  C          6.9660    0.2600   27.8150 C.2    31  PHE31       0.2264
      4  O          7.3790   -0.6670   28.5130 O.2    31  PHE31      -0.2867
      5  CB         8.5160    0.3430   25.8490 C.3    31  PHE31       0.0534
      6  CG         8.8070   -0.2130   24.4930 C.ar   31  PHE31      -0.0203
      7  CD1        9.0360   -1.5710   24.3290 C.ar   31  PHE31      -0.0042
      8  CD2        8.8370    0.6120   23.3740 C.ar   31  PHE31      -0.0042
      9  CE1        9.3020   -2.0890   23.0870 C.ar   31  PHE31      -0.0003
     10  CE2        9.1020    0.0930   22.1130 C.ar   31  PHE31      -0.0003
     11  CZ         9.3400   -1.2540   21.9710 C.ar   31  PHE31      -0.0000
     12  N          4.0080   -2.5440   28.9100 N.3    34  LEU34      -0.1245
     13  CA         4.0470   -3.9800   28.5870 C.3    34  LEU34       0.1561
     14  C          4.2870   -4.7920   29.8420 C.2    34  LEU34       0.2260
     15  O          4.3510   -6.0210   29.7870 O.2    34  LEU34      -0.2867
     16  CB         5.1490   -4.3010   27.5780 C.3    34  LEU34       0.0270
     17  CG         4.7550   -4.2760   26.1080 C.3    34  LEU34       0.0019
     18  CD1        4.1640   -2.9340   25.7350 C.3    34  LEU34       0.0001
     19  CD2        5.9660   -4.5840   25.2620 C.3    34  LEU34       0.0001
     20  N         11.8610   -4.1050   29.4930 N.3    39  PHE39      -0.1241
     21  CA        11.6420   -3.2280   28.3400 C.3    39  PHE39       0.1605
     22  C         12.3020   -1.8490   28.4320 C.2    39  PHE39       0.2264
     23  O         12.2760   -1.0820   27.4620 O.2    39  PHE39      -0.2867
     24  CB        10.1360   -3.1000   28.0740 C.3    39  PHE39       0.0534
     25  CG         9.4900   -4.4150   27.7220 C.ar   39  PHE39      -0.0203
     26  CD1        9.8100   -5.0570   26.5310 C.ar   39  PHE39      -0.0042
     27  CD2        8.6090   -5.0370   28.5950 C.ar   39  PHE39      -0.0042
     28  CE1        9.2590   -6.2880   26.2150 C.ar   39  PHE39      -0.0003
     29  CE2        8.0420   -6.2670   28.2740 C.ar   39  PHE39      -0.0003
     30  CZ         8.3720   -6.8930   27.0830 C.ar   39  PHE39      -0.0000
     31  N         15.6210   -0.9090   28.6920 N.3    41  PRO41      -0.2102
     32  CA        16.7340   -0.7720   27.7560 C.3    41  PRO41       0.1504
     33  C         16.2970   -0.7250   26.3060 C.2    41  PRO41       0.2575
     34  O         16.9540   -0.1130   25.4850 O.2    41  PRO41      -0.2718
     35  CB        17.5630   -2.0470   28.0010 C.3    41  PRO41       0.0282
     36  CG        17.1260   -2.5330   29.3200 C.3    41  PRO41       0.0208
     37  CD        15.6910   -2.1900   29.4120 C.3    41  PRO41       0.0893
     38  N         15.2110   -1.4190   25.9970 N.am   42  ILE42      -0.1980
     39  CA        14.6380   -1.4110   24.6500 C.3    42  ILE42       0.1595
     40  C         14.1250   -0.0210   24.2860 C.2    42  ILE42       0.2287
     41  O         14.4320    0.5010   23.2060 O.2    42  ILE42      -0.2864
     42  CB        13.5100   -2.4530   24.5340 C.3    42  ILE42       0.0276
     43  CG1       14.1320   -3.8430   24.4370 C.3    42  ILE42       0.0022
     44  CG2       12.6260   -2.1850   23.3090 C.3    42  ILE42       0.0022
     45  CD1       13.1340   -5.0080   24.6840 C.3    42  ILE42       0.0001
     46  N         17.0360    2.3700   23.5200 N.3    45  ASP45      -0.1225
     47  CA        17.6990    2.2470   22.2210 C.3    45  ASP45       0.1805
     48  C         16.9110    2.9980   21.1490 C.2    45  ASP45       0.2597
     49  O         17.4910    3.7230   20.3530 O.2    45  ASP45      -0.2718
     50  CB        17.8350    0.7850   21.8010 C.3    45  ASP45       0.1424
     51  CG        18.5600    0.6420   20.5030 C.2    45  ASP45       0.3668
     52  OD1       19.7960    0.4560   20.5360 O.co2  45  ASP45      -0.2456
     53  OD2       17.9100    0.7550   19.4420 O.co2  45  ASP45      -0.2456
     54  N         15.5950    2.8100   21.1590 N.am   46  ILE46      -0.1980
     55  CA        14.7170    3.4230   20.1880 C.3    46  ILE46       0.1595
     56  C         14.7150    4.9350   20.3790 C.2    46  ILE46       0.2287
     57  O         14.9750    5.6830   19.4240 O.2    46  ILE46      -0.2864
     58  CB        13.2620    2.8320   20.2500 C.3    46  ILE46       0.0276
     59  CG1       13.2970    1.3240   19.8910 C.3    46  ILE46       0.0022
     60  CG2       12.3860    3.5600   19.2740 C.3    46  ILE46       0.0022
     61  CD1       12.0500    0.5580   20.0540 C.3    46  ILE46       0.0001
     62  N         19.6340    1.7420   12.7500 N.3    93  TRP93      -0.1241
     63  CA        19.1750    0.9480   13.8480 C.3    93  TRP93       0.1605
     64  C         17.7230    1.2480   14.2090 C.2    93  TRP93       0.2264
     65  O         16.9930    0.3350   14.6070 O.2    93  TRP93      -0.2867
     66  CB        20.1150    1.0970   15.0490 C.3    93  TRP93       0.0550
     67  CG        21.3810    0.3170   14.8660 C.ar   93  TRP93       0.0003
     68  CD1       22.5800    0.7830   14.4090 C.ar   93  TRP93       0.0946
     69  CD2       21.5520   -1.0910   15.0720 C.ar   93  TRP93       0.0152
     70  NE1       23.4980   -0.2460   14.3470 N.ar   93  TRP93      -0.2442
     71  CE2       22.8900   -1.4050   14.7490 C.ar   93  TRP93       0.0810
     72  CE3       20.7110   -2.1120   15.5260 C.ar   93  TRP93       0.0012
     73  CZ2       23.3970   -2.6900   14.8710 C.ar   93  TRP93       0.0191
     74  CZ3       21.2100   -3.3740   15.6470 C.ar   93  TRP93       0.0001
     75  CH2       22.5410   -3.6620   15.3260 C.ar   93  TRP93       0.0015
     76  N         14.2900   -1.3950   14.6640 N.3    97  GLY97      -0.1225
     77  CA        13.3410   -1.3250   15.7610 C.3    97  GLY97       0.1811
     78  C         11.9160   -1.0840   15.2800 C.2    97  GLY97       0.2280
     79  O         10.9780   -1.7460   15.7220 O.2    97  GLY97      -0.2866
     80  N         10.7480   -4.2200   13.5540 N.3   100  PHE100     -0.1227
     81  CA        10.3780   -5.1800   14.5850 C.3   100  PHE100      0.1736
     82  C          8.9310   -4.9590   14.9970 C.2   100  PHE100      0.2595
     83  O          8.1260   -5.8940   14.9490 O.2   100  PHE100     -0.2718
     84  CB        11.2560   -5.1020   15.8320 C.3   100  PHE100      0.0547
     85  CG        10.8690   -6.1160   16.8820 C.ar  100  PHE100     -0.0202
     86  CD1       11.5120   -7.3390   16.9390 C.ar  100  PHE100     -0.0042
     87  CD2        9.8160   -5.8630   17.7680 C.ar  100  PHE100     -0.0042
     88  CE1       11.1340   -8.2830   17.8940 C.ar  100  PHE100     -0.0003
     89  CE2        9.4190   -6.8070   18.7120 C.ar  100  PHE100     -0.0003
     90  CZ        10.0740   -8.0140   18.7770 C.ar  100  PHE100     -0.0000
     91  N          8.5910   -3.7320   15.3870 N.am  101  ILE101     -0.1980
     92  CA         7.2190   -3.4260   15.8380 C.3   101  ILE101      0.1595
     93  C          6.1850   -3.6970   14.7340 C.2   101  ILE101      0.2287
     94  O          5.0720   -4.2190   14.9860 O.2   101  ILE101     -0.2864
     95  CB         7.0900   -1.9730   16.3020 C.3   101  ILE101      0.0276
     96  CG1        7.9390   -1.7550   17.5610 C.3   101  ILE101      0.0022
     97  CG2        5.6250   -1.6190   16.6020 C.3   101  ILE101      0.0022
     98  CD1        8.2700   -0.3380   17.8010 C.3   101  ILE101      0.0001
     99  N          5.8020   -7.5570   14.2560 N.3   104  PHE104     -0.1241
    100  CA         5.0690   -8.0290   15.4220 C.3   104  PHE104      0.1605
    101  C          3.5700   -7.6960   15.3480 C.2   104  PHE104      0.2264
    102  O          2.7090   -8.5700   15.5410 O.2   104  PHE104     -0.2867
    103  CB         5.6870   -7.4100   16.6700 C.3   104  PHE104      0.0534
    104  CG         5.0380   -7.8270   17.9580 C.ar  104  PHE104     -0.0203
    105  CD1        5.1750   -9.1220   18.4350 C.ar  104  PHE104     -0.0042
    106  CD2        4.3020   -6.9110   18.7150 C.ar  104  PHE104     -0.0042
    107  CE1        4.5920   -9.5100   19.6660 C.ar  104  PHE104     -0.0003
    108  CE2        3.7160   -7.2900   19.9210 C.ar  104  PHE104     -0.0003
    109  CZ         3.8580   -8.6070   20.3880 C.ar  104  PHE104     -0.0000
    110  N          2.0470  -14.3100   23.0320 N.3   121  ILE121     -0.1245
    111  CA         2.5130  -13.5630   21.8560 C.3   121  ILE121      0.1561
    112  C          3.9570  -13.9150   21.5010 C.2   121  ILE121      0.2260
    113  O          4.6330  -13.1550   20.8060 O.2   121  ILE121     -0.2867
    114  CB         2.3830  -12.0340   22.0500 C.3   121  ILE121      0.0252
    115  CG1        3.2660  -11.5520   23.2090 C.3   121  ILE121      0.0019
    116  CG2        0.9230  -11.6460   22.2590 C.3   121  ILE121      0.0019
    117  CD1        2.8950  -10.1680   23.7720 C.3   121  ILE121      0.0001
    118  N          6.3750  -12.2910   18.4960 N.3   125  ALA125     -0.1245
    119  CA         7.6310  -11.6420   18.8410 C.3   125  ALA125      0.1562
    120  C          8.8240  -12.3180   18.1910 C.2   125  ALA125      0.2260
    121  O          9.7060  -11.6510   17.6340 O.2   125  ALA125     -0.2867
    122  CB         7.7910  -11.6340   20.3400 C.3   125  ALA125      0.0290
    123  N         11.4460  -10.6850   15.5790 N.3   129  TYR129     -0.1241
    124  CA        12.8730  -10.7160   15.9000 C.3   129  TYR129      0.1605
    125  C         13.6680  -11.3390   14.7690 C.2   129  TYR129      0.2264
    126  O         14.6840  -10.7810   14.3360 O.2   129  TYR129     -0.2867
    127  CB        13.1030  -11.4790   17.1940 C.3   129  TYR129      0.0534
    128  CG        14.5460  -11.4940   17.6290 C.ar  129  TYR129     -0.0201
    129  CD1       15.1820  -10.3240   18.0420 C.ar  129  TYR129     -0.0009
    130  CD2       15.2790  -12.6900   17.6460 C.ar  129  TYR129     -0.0009
    131  CE1       16.5300  -10.3360   18.4360 C.ar  129  TYR129      0.0417
    132  CE2       16.6080  -12.7140   18.0590 C.ar  129  TYR129      0.0417
    133  CZ        17.2280  -11.5350   18.4460 C.ar  129  TYR129      0.1957
    134  OH        18.5340  -11.5720   18.8420 O.3   129  TYR129     -0.2866
    135  N         15.7860   -8.0910   13.4710 N.3   133  LEU133     -0.1245
    136  CA        16.9480   -7.8790   14.3430 C.3   133  LEU133      0.1561
    137  C         17.9690   -9.0260   14.4270 C.2   133  LEU133      0.2260
    138  O         19.1710   -8.7670   14.4590 O.2   133  LEU133     -0.2867
    139  CB        16.4730   -7.5490   15.7630 C.3   133  LEU133      0.0270
    140  CG        15.7180   -6.2340   15.9320 C.3   133  LEU133      0.0019
    141  CD1       15.0250   -6.1700   17.2810 C.3   133  LEU133      0.0001
    142  CD2       16.6730   -5.0530   15.7630 C.3   133  LEU133      0.0001
    143  N         22.4760   -9.5570   15.6580 N.3   137  HIS137     -0.1241
    144  CA        22.8790   -9.8930   17.0160 C.3   137  HIS137      0.1621
    145  C         23.7950  -11.1330   17.0490 C.2   137  HIS137      0.2264
    146  O         23.4950  -12.1550   16.4270 O.2   137  HIS137     -0.2867
    147  CB        21.6540  -10.1610   17.8770 C.3   137  HIS137      0.0745
    148  CG        20.8030   -8.9530   18.1010 C.ar  137  HIS137      0.0817
    149  ND1       19.5750   -9.0210   18.7180 N.ar  137  HIS137     -0.2268
    150  CD2       20.9980   -7.6490   17.7840 C.ar  137  HIS137      0.1154
    151  CE1       19.0550   -7.8080   18.7880 C.ar  137  HIS137      0.1986
    152  NE2       19.8980   -6.9560   18.2280 N.ar  137  HIS137     -0.2212
    153  N         23.5440  -11.6320   22.7570 N.3   141  VAL141     -0.1245
    154  CA        22.3400  -10.7920   22.7130 C.3   141  VAL141      0.1561
    155  C         21.1170  -11.6480   22.3260 C.2   141  VAL141      0.2260
    156  O         20.0180  -11.4620   22.8600 O.2   141  VAL141     -0.2867
    157  CB        22.5220   -9.5790   21.7640 C.3   141  VAL141      0.0252
    158  CG1       21.1990   -8.7990   21.5850 C.3   141  VAL141      0.0019
    159  CG2       23.5940   -8.6420   22.3110 C.3   141  VAL141      0.0019
    160  N         19.9440  -13.2790   25.3250 N.3   144  ILE144     -0.1231
    161  CA        19.2330  -12.2760   26.1350 C.3   144  ILE144      0.1692
    162  C         17.7980  -12.0490   25.6300 C.2   144  ILE144      0.2592
    163  O         16.8570  -11.9650   26.4390 O.2   144  ILE144     -0.2718
    164  CB        19.9900  -10.9290   26.2150 C.3   144  ILE144      0.0266
    165  CG1       21.3420  -11.1070   26.9320 C.3   144  ILE144      0.0019
    166  CG2       19.1470   -9.8850   26.9740 C.3   144  ILE144      0.0020
    167  CD1       22.2730   -9.8930   26.8420 C.3   144  ILE144      0.0001
    168  N         17.6210  -11.9680   24.3140 N.am  145  PHE145     -0.1976
    169  CA        16.2680  -11.8890   23.7500 C.3   145  PHE145      0.1639
    170  C         15.3860  -13.0720   24.1690 C.2   145  PHE145      0.2290
    171  O         14.2280  -12.9040   24.5460 O.2   145  PHE145     -0.2864
    172  CB        16.2850  -11.8260   22.2310 C.3   145  PHE145      0.0560
    173  CG        14.9310  -12.0930   21.6230 C.ar  145  PHE145     -0.0200
    174  CD1       13.9490  -11.1120   21.6390 C.ar  145  PHE145     -0.0042
    175  CD2       14.6160  -13.3460   21.0990 C.ar  145  PHE145     -0.0042
    176  CE1       12.6890  -11.3590   21.1150 C.ar  145  PHE145     -0.0003
    177  CE2       13.3500  -13.6010   20.5730 C.ar  145  PHE145     -0.0003
    178  CZ        12.3910  -12.6040   20.5710 C.ar  145  PHE145     -0.0000
    179  N         14.2750  -12.4390   27.6410 N.3   148  ALA148     -0.1231
    180  CA        13.3490  -11.3000   27.6670 C.3   148  ALA148      0.1694
    181  C         11.9650  -11.6360   27.1140 C.2   148  ALA148      0.2591
    182  O         10.9800  -10.9900   27.4670 O.2   148  ALA148     -0.2718
    183  CB        13.9480  -10.1300   26.8860 C.3   148  ALA148      0.0304
    184  N         11.8970  -12.6440   26.2450 N.am  149  LEU149     -0.1980
    185  CA        10.6390  -13.0450   25.6110 C.3   149  LEU149      0.1596
    186  C          9.6190  -13.5140   26.6360 C.2   149  LEU149      0.2287
    187  O          8.4220  -13.3790   26.4360 O.2   149  LEU149     -0.2864
    188  CB        10.9040  -14.1430   24.5840 C.3   149  LEU149      0.0297
    189  CG         9.7580  -14.6580   23.7220 C.3   149  LEU149      0.0022
    190  CD1        9.1410  -13.5620   22.8850 C.3   149  LEU149      0.0001
    191  CD2       10.2820  -15.7730   22.8300 C.3   149  LEU149      0.0001
    192  N          7.0440  -10.9730   28.0000 N.3   152  ALA152     -0.1231
    193  CA         5.8840  -10.6600   27.1630 C.3   152  ALA152      0.1679
    194  C          4.5550  -10.9480   27.8750 C.2   152  ALA152      0.2434
    195  O          4.3850  -12.0280   28.4460 O.2   152  ALA152     -0.2733
    196  CB         5.9490  -11.4460   25.8750 C.3   152  ALA152      0.0304
    197  N          3.6040   -9.9840   27.8310 N.am  153  PRO153     -0.2729
    198  CA         2.3010  -10.2460   28.4270 C.3   153  PRO153      0.1401
    199  C          1.4860  -11.2250   27.5920 C.2   153  PRO153      0.2269
    200  O          1.9610  -11.7260   26.5620 O.2   153  PRO153     -0.2865
    201  CB         1.6410   -8.8650   28.4880 C.3   153  PRO153      0.0296
    202  CG         2.3340   -8.0380   27.4720 C.3   153  PRO153      0.0237
    203  CD         3.6890   -8.6380   27.2280 C.3   153  PRO153      0.0939
    204  N         -2.1830   -7.5540   26.3720 N.3   158  PHE158     -0.1241
    205  CA        -1.4370   -6.6610   25.4840 C.3   158  PHE158      0.1605
    206  C         -2.3880   -5.7680   24.7030 C.2   158  PHE158      0.2264
    207  O         -2.1850   -4.5530   24.6190 O.2   158  PHE158     -0.2867
    208  CB        -0.5720   -7.4750   24.5120 C.3   158  PHE158      0.0534
    209  CG         0.1320   -6.6420   23.4860 C.ar  158  PHE158     -0.0203
    210  CD1        1.1810   -5.8090   23.8550 C.ar  158  PHE158     -0.0042
    211  CD2       -0.2530   -6.6840   22.1550 C.ar  158  PHE158     -0.0042
    212  CE1        1.8430   -5.0260   22.9130 C.ar  158  PHE158     -0.0003
    213  CE2        0.3950   -5.9060   21.2060 C.ar  158  PHE158     -0.0003
    214  CZ         1.4510   -5.0720   21.5880 C.ar  158  PHE158     -0.0000
    215  N         26.1860   -7.2500   16.8320 N.3   205  VAL205     -0.1245
    216  CA        26.5140   -6.6760   18.1390 C.3   205  VAL205      0.1561
    217  C         26.6070   -7.7250   19.2420 C.2   205  VAL205      0.2260
    218  O         25.9190   -8.7590   19.3050 O.2   205  VAL205     -0.2867
    219  CB        25.5380   -5.5170   18.5650 C.3   205  VAL205      0.0252
    220  CG1       25.8150   -4.2500   17.7390 C.3   205  VAL205      0.0019
    221  CG2       24.0830   -5.9230   18.4540 C.3   205  VAL205      0.0019
@<TRIPOS>BOND
     1    62    63    1
     2   135   136    1
     3    80    81    1
     4    63    64    1
     5    63    66    1
     6    64    65    2
     7    99   100    1
     8   126   125    2
     9   136   137    1
    10   136   139    1
    11    70    68   ar
    12    70    71   ar
    13    68    67   ar
    14   137   138    2
    15    81    82    1
    16    81    84    1
    17    76    77    1
    18    93    94    2
    19    93    92    1
    20    71    73   ar
    21    71    69   ar
    22   125   124    1
    23    67    66    1
    24    67    69   ar
    25    73    75   ar
    26    83    82    2
    27    82    91   am
    28    69    72   ar
    29    78    79    2
    30    78    77    1
    31    75    74   ar
    32   101   100    1
    33   101   102    2
    34    91    92    1
    35   100   103    1
    36    72    74   ar
    37   123   124    1
    38   143   144    1
    39   142   140    1
    40   139   140    1
    41    84    85    1
    42    92    95    1
    43   124   127    1
    44   140   141    1
    45    95    97    1
    46    95    96    1
    47   146   145    2
    48   103   104    1
    49   215   216    1
    50    85    86   ar
    51    85    87   ar
    52    86    88   ar
    53   144   145    1
    54   144   147    1
    55   127   128    1
    56    96    98    1
    57   128   130   ar
    58   128   129   ar
    59   121   120    2
    60   130   132   ar
    61   220   219    1
    62    87    89   ar
    63   150   148   ar
    64   150   152   ar
    65   147   148    1
    66    88    90   ar
    67   104   105   ar
    68   104   106   ar
    69   129   131   ar
    70   132   133   ar
    71   148   149   ar
    72   216   219    1
    73   216   217    1
    74   120   119    1
    75   152   151   ar
    76   105   107   ar
    77   131   133   ar
    78   133   134    1
    79   221   219    1
    80   118   119    1
    81    89    90   ar
    82   106   108   ar
    83   149   151   ar
    84   119   122    1
    85   217   218    2
    86    60    58    1
    87    57    56    2
    88    53    51   ar
    89   107   109   ar
    90    59    61    1
    91    59    58    1
    92   108   109   ar
    93    55    58    1
    94    55    56    1
    95    55    54    1
    96    49    48    2
    97    51    52   ar
    98    51    50    1
    99   178   177   ar
   100   178   176   ar
   101   177   175   ar
   102   113   112    2
   103   175   173   ar
   104   176   174   ar
   105    48    54   am
   106    48    47    1
   107   213   214   ar
   108   213   211   ar
   109   112   111    1
   110   158   157    1
   111   214   212   ar
   112   173   174   ar
   113   173   172    1
   114   157   159    1
   115   157   154    1
   116    50    47    1
   117   111   114    1
   118   111   110    1
   119    11    10   ar
   120    11     9   ar
   121   114   116    1
   122   114   115    1
   123    10     8   ar
   124   211   209   ar
   125    47    46    1
   126   172   169    1
   127   155   154    1
   128   155   156    2
   129   154   153    1
   130   191   189    1
   131   190   189    1
   132   212   210   ar
   133     9     7   ar
   134    41    40    2
   135   115   117    1
   136    44    42    1
   137     8     6   ar
   138   209   210   ar
   139   209   208    1
   140   189   188    1
   141   169   170    1
   142   169   168    1
   143   170   171    2
   144    40    39    1
   145   168   162   am
   146     7     6   ar
   147    43    42    1
   148    43    45    1
   149     6     5    1
   150   208   205    1
   151    42    39    1
   152   188   185    1
   153   207   206    2
   154    39    38    1
   155   206   205    1
   156    19    17    1
   157   160   161    1
   158   205   204    1
   159    34    33    2
   160     1     2    1
   161   185   184    1
   162   185   186    1
   163   162   161    1
   164   162   163    2
   165    18    17    1
   166     5     2    1
   167   196   193    1
   168    38    33   am
   169    17    16    1
   170   161   164    1
   171   164   165    1
   172   164   166    1
   173    28    26   ar
   174    28    30   ar
   175   184   181   am
   176     2     3    1
   177    33    32    1
   178   187   186    2
   179    26    25   ar
   180   200   199    2
   181   167   165    1
   182   183   180    1
   183    30    29   ar
   184   181   182    2
   185   181   180    1
   186   193   194    1
   187   193   192    1
   188   203   202    1
   189   203   197    1
   190    23    22    2
   191   202   201    1
   192    16    13    1
   193   199   198    1
   194   179   180    1
   195    25    24    1
   196    25    27   ar
   197    32    35    1
   198    32    31    1
   199     3     4    2
   200   197   194   am
   201   197   198    1
   202   194   195    2
   203    35    36    1
   204    24    21    1
   205    29    27   ar
   206    21    22    1
   207    21    20    1
   208   198   201    1
   209    13    12    1
   210    13    14    1
   211    31    37    1
   212    36    37    1
   213    15    14    2
