@<TRIPOS>MOLECULE
tmp/2evmA00.pdb
 160 156 0 0 0
SMALL
GASTEIGER

@<TRIPOS>ATOM
      1  N         -4.6370    6.2600    9.8180 N.3    56  CYS56      -0.1235
      2  CA        -5.3090    5.0390   10.2570 C.3    56  CYS56       0.1677
      3  C         -6.7750    5.2430   10.5810 C.2    56  CYS56       0.2270
      4  O         -7.6040    4.3810   10.3110 O.2    56  CYS56      -0.2867
      5  CB        -4.6230    4.4780   11.4980 C.3    56  CYS56       0.0956
      6  SG        -2.9060    4.0700   11.2540 S.3    56  CYS56      -0.0801
      7  N         -9.3900    4.2500    8.0770 N.3    59  TYR59      -0.1227
      8  CA        -8.8160    3.4240    7.0240 C.3    59  TYR59       0.1736
      9  C         -9.3970    2.0200    7.0630 C.2    59  TYR59       0.2595
     10  O         -9.1980    1.2870    8.0300 O.2    59  TYR59      -0.2718
     11  CB        -7.3010    3.3600    7.1830 C.3    59  TYR59       0.0548
     12  CG        -6.6020    2.7580    5.9950 C.ar   59  TYR59      -0.0200
     13  CD1       -6.6820    3.3580    4.7380 C.ar   59  TYR59      -0.0009
     14  CD2       -5.8580    1.5900    6.1220 C.ar   59  TYR59      -0.0009
     15  CE1       -6.0340    2.8070    3.6370 C.ar   59  TYR59       0.0417
     16  CE2       -5.2090    1.0290    5.0290 C.ar   59  TYR59       0.0417
     17  CZ        -5.2990    1.6430    3.7920 C.ar   59  TYR59       0.1957
     18  OH        -4.6430    1.0960    2.7160 O.3    59  TYR59      -0.2866
     19  N        -10.1030    1.6430    5.9990 N.am   60  HIS60      -0.1975
     20  CA       -10.7360    0.3300    5.9290 C.3    60  HIS60       0.1656
     21  C        -11.6830    0.1950    7.1080 C.2    60  HIS60       0.2291
     22  O        -12.0370   -0.9110    7.5120 O.2    60  HIS60      -0.2864
     23  CB        -9.6890   -0.7850    5.9750 C.3    60  HIS60       0.0771
     24  CG        -9.0710   -1.0910    4.6480 C.ar   60  HIS60       0.0820
     25  ND1       -9.7100   -1.8420    3.6850 N.ar   60  HIS60      -0.2267
     26  CD2       -7.8720   -0.7480    4.1210 C.ar   60  HIS60       0.1154
     27  CE1       -8.9300   -1.9500    2.6240 C.ar   60  HIS60       0.1986
     28  NE2       -7.8090   -1.2950    2.8630 N.ar   60  HIS60      -0.2212
     29  N        -11.0110    1.4530   10.2210 N.3    62  TYR62      -0.1241
     30  CA       -10.3210    1.4220   11.5100 C.3    62  TYR62       0.1605
     31  C        -10.8420    2.5540   12.3980 C.2    62  TYR62       0.2264
     32  O        -10.7950    3.7200   12.0170 O.2    62  TYR62      -0.2867
     33  CB        -8.8060    1.5560   11.3240 C.3    62  TYR62       0.0534
     34  CG        -8.0570    1.2580   12.5970 C.ar   62  TYR62      -0.0201
     35  CD1       -8.0190   -0.0370   13.1200 C.ar   62  TYR62      -0.0009
     36  CD2       -7.4530    2.2800   13.3230 C.ar   62  TYR62      -0.0009
     37  CE1       -7.4020   -0.3010   14.3440 C.ar   62  TYR62       0.0417
     38  CE2       -6.8350    2.0290   14.5440 C.ar   62  TYR62       0.0417
     39  CZ        -6.8160    0.7430   15.0510 C.ar   62  TYR62       0.1957
     40  OH        -6.2430    0.5180   16.2800 O.3    62  TYR62      -0.2866
     41  N         -2.5700    2.3250   16.2440 N.3    67  CYS67      -0.1235
     42  CA        -2.8170    0.9230   16.5660 C.3    67  CYS67       0.1677
     43  C         -1.9410    0.6140   17.7600 C.2    67  CYS67       0.2270
     44  O         -0.7580    0.9470   17.7550 O.2    67  CYS67      -0.2867
     45  CB        -2.4110    0.0040   15.4150 C.3    67  CYS67       0.0956
     46  SG        -3.4810    0.1220   13.9680 S.3    67  CYS67      -0.0801
     47  N         -2.9410   -4.4230   14.8230 N.3    76  HIS76      -0.1241
     48  CA        -4.2520   -3.8020   14.7780 C.3    76  HIS76       0.1621
     49  C         -4.9940   -3.7440   16.1020 C.2    76  HIS76       0.2264
     50  O         -6.2250   -3.6940   16.1290 O.2    76  HIS76      -0.2867
     51  CB        -5.0990   -4.4990   13.7110 C.3    76  HIS76       0.0745
     52  CG        -4.4780   -4.4560   12.3510 C.ar   76  HIS76       0.0817
     53  ND1       -4.9680   -5.1720   11.2810 N.ar   76  HIS76      -0.2268
     54  CD2       -3.3980   -3.7820   11.8900 C.ar   76  HIS76       0.1154
     55  CE1       -4.2160   -4.9410   10.2200 C.ar   76  HIS76       0.1986
     56  NE2       -3.2570   -4.1010   10.5630 N.ar   76  HIS76      -0.2212
     57  N          1.7510    1.7890   16.6740 N.3    94  ASP94      -0.1239
     58  CA         1.9970    1.9900   15.2590 C.3    94  ASP94       0.1674
     59  C          1.2970    3.2630   14.8130 C.2    94  ASP94       0.2266
     60  O          0.0820    3.4140   14.9680 O.2    94  ASP94      -0.2867
     61  CB         1.4760    0.7880   14.4690 C.3    94  ASP94       0.1410
     62  CG         1.9520    0.7890   13.0310 C.2    94  ASP94       0.3668
     63  OD1        2.6190    1.7680   12.6290 O.co2  94  ASP94      -0.2456
     64  OD2        1.6660   -0.1860   12.3100 O.co2  94  ASP94      -0.2456
     65  N          0.7940    6.3760   11.7400 N.3    96  THR96      -0.1218
     66  CA         0.8700    6.7730   10.3500 C.3    96  THR96       0.1862
     67  C          0.1780    8.1130   10.2790 C.2    96  THR96       0.2287
     68  O         -0.9810    8.2460   10.6630 O.2    96  THR96      -0.2866
     69  CB         0.1790    5.8000    9.4030 C.3    96  THR96       0.1770
     70  OG1        0.8350    4.5300    9.4770 O.3    96  THR96      -0.2211
     71  CG2        0.2820    6.3130    7.9810 C.3    96  THR96       0.0375
     72  N          5.0090    6.3160    8.0710 N.3   105  ASP105     -0.1239
     73  CA         4.5210    5.1200    8.7530 C.3   105  ASP105      0.1674
     74  C          5.6160    4.4740    9.6010 C.2   105  ASP105      0.2266
     75  O          6.6680    4.1090    9.0920 O.2   105  ASP105     -0.2867
     76  CB         4.0280    4.1480    7.6760 C.3   105  ASP105      0.1410
     77  CG         3.2190    3.0090    8.2300 C.2   105  ASP105      0.3668
     78  OD1        3.0710    2.9050    9.4660 O.co2 105  ASP105     -0.2456
     79  OD2        2.7250    2.2090    7.4060 O.co2 105  ASP105     -0.2456
     80  N          0.7910  -10.3700    6.9230 N.3   165  TYR165     -0.1227
     81  CA         1.0220   -8.9380    6.7760 C.3   165  TYR165      0.1736
     82  C          2.4020   -8.6320    6.2350 C.2   165  TYR165      0.2595
     83  O          3.3460   -9.3960    6.4270 O.2   165  TYR165     -0.2718
     84  CB         0.8010   -8.2360    8.1150 C.3   165  TYR165      0.0548
     85  CG        -0.5400   -8.5750    8.7130 C.ar  165  TYR165     -0.0200
     86  CD1       -0.6680   -9.5890    9.6610 C.ar  165  TYR165     -0.0009
     87  CD2       -1.6980   -7.9420    8.2660 C.ar  165  TYR165     -0.0009
     88  CE1       -1.9150   -9.9680   10.1410 C.ar  165  TYR165      0.0417
     89  CE2       -2.9490   -8.3160    8.7410 C.ar  165  TYR165      0.0417
     90  CZ        -3.0500   -9.3290    9.6740 C.ar  165  TYR165      0.1957
     91  OH        -4.2900   -9.7240   10.1210 O.3   165  TYR165     -0.2866
     92  N          2.5220   -7.4950    5.5650 N.am  166  CYS166     -0.1970
     93  CA         3.7920   -7.1310    4.9640 C.3   166  CYS166      0.1712
     94  C          4.0160   -5.6350    4.9060 C.2   166  CYS166      0.2296
     95  O          3.1220   -4.8460    5.2290 O.2   166  CYS166     -0.2864
     96  CB         3.8550   -7.6920    3.5430 C.3   166  CYS166      0.0983
     97  SG         2.5250   -7.0660    2.4510 S.3   166  CYS166     -0.0798
     98  N          5.1230   -2.1980    2.6560 N.3   168  HIS168     -0.1241
     99  CA         4.4550   -1.7190    1.4630 C.3   168  HIS168      0.1621
    100  C          5.0360   -0.4120    0.9680 C.2   168  HIS168      0.2264
    101  O          5.6420    0.3390    1.7330 O.2   168  HIS168     -0.2867
    102  CB         2.9930   -1.4930    1.8240 C.3   168  HIS168      0.0745
    103  CG         2.8210   -0.6690    3.0650 C.ar  168  HIS168      0.0817
    104  ND1        2.8370    0.7100    3.0530 N.ar  168  HIS168     -0.2268
    105  CD2        2.7240   -1.0310    4.3670 C.ar  168  HIS168      0.1154
    106  CE1        2.7550    1.1610    4.2930 C.ar  168  HIS168      0.1986
    107  NE2        2.6860    0.1250    5.1090 N.ar  168  HIS168     -0.2212
    108  N         -1.4510    5.3400    1.5020 N.3   174  PHE174     -0.1227
    109  CA        -0.9950    4.6940    2.7220 C.3   174  PHE174      0.1736
    110  C         -0.2850    3.4020    2.3150 C.2   174  PHE174      0.2595
    111  O          0.8630    3.1610    2.6940 O.2   174  PHE174     -0.2718
    112  CB        -2.2110    4.4050    3.6050 C.3   174  PHE174      0.0547
    113  CG        -1.8810    3.9100    4.9920 C.ar  174  PHE174     -0.0202
    114  CD1       -0.5890    3.5540    5.3510 C.ar  174  PHE174     -0.0042
    115  CD2       -2.8970    3.7580    5.9260 C.ar  174  PHE174     -0.0042
    116  CE1       -0.3200    3.0460    6.6260 C.ar  174  PHE174     -0.0003
    117  CE2       -2.6410    3.2550    7.1950 C.ar  174  PHE174     -0.0003
    118  CZ        -1.3490    2.8970    7.5460 C.ar  174  PHE174     -0.0000
    119  N         -0.9730    2.5860    1.5260 N.am  175  HIS175     -0.1975
    120  CA        -0.4180    1.3290    1.0540 C.3   175  HIS175      0.1656
    121  C         -0.3680    1.2990   -0.4620 C.2   175  HIS175      0.2291
    122  O         -1.4030    1.2130   -1.1170 O.2   175  HIS175     -0.2864
    123  CB        -1.2560    0.1520    1.5580 C.3   175  HIS175      0.0771
    124  CG        -1.2780    0.0300    3.0470 C.ar  175  HIS175      0.0820
    125  ND1       -2.2730    0.5790    3.8270 N.ar  175  HIS175     -0.2267
    126  CD2       -0.3940   -0.5310    3.9050 C.ar  175  HIS175      0.1154
    127  CE1       -1.9990    0.3630    5.1020 C.ar  175  HIS175      0.1986
    128  NE2       -0.8630   -0.3080    5.1760 N.ar  175  HIS175     -0.2212
    129  N          8.3700   -3.7600    8.0360 N.3   201  GLU201     -0.1245
    130  CA         7.6960   -3.8320    9.3230 C.3   201  GLU201      0.1567
    131  C          7.3990   -5.2630    9.7380 C.2   201  GLU201      0.2260
    132  O          6.2460   -5.6520    9.9070 O.2   201  GLU201     -0.2867
    133  CB         6.3920   -3.0340    9.2270 C.3   201  GLU201      0.0388
    134  CG         5.5620   -3.3730    7.9820 C.3   201  GLU201      0.1160
    135  CD         4.2900   -2.5480    7.8640 C.2   201  GLU201      0.3649
    136  OE1        3.4550   -2.6230    8.7810 O.co2 201  GLU201     -0.2457
    137  OE2        4.1230   -1.8290    6.8530 O.co2 201  GLU201     -0.2457
    138  N        -10.8460   -6.5930   14.0750 N.3   218  TRP218     -0.1241
    139  CA        -9.5590   -5.9280   13.9330 C.3   218  TRP218      0.1605
    140  C         -8.4000   -6.5940   14.6440 C.2   218  TRP218      0.2264
    141  O         -7.3670   -6.8750   14.0390 O.2   218  TRP218     -0.2867
    142  CB        -9.6610   -4.4850   14.4340 C.3   218  TRP218      0.0550
    143  CG       -10.4010   -3.6030   13.5090 C.ar  218  TRP218      0.0003
    144  CD1      -11.6220   -3.0290   13.7170 C.ar  218  TRP218      0.0946
    145  CD2       -9.9960   -3.2260   12.1930 C.ar  218  TRP218      0.0152
    146  NE1      -12.0050   -2.3210   12.6050 N.ar  218  TRP218     -0.2442
    147  CE2      -11.0250   -2.4250   11.6540 C.ar  218  TRP218      0.0810
    148  CE3       -8.8630   -3.4900   11.4130 C.ar  218  TRP218      0.0012
    149  CZ2      -10.9570   -1.8850   10.3680 C.ar  218  TRP218      0.0191
    150  CZ3       -8.7940   -2.9550   10.1360 C.ar  218  TRP218      0.0001
    151  CH2       -9.8380   -2.1600    9.6240 C.ar  218  TRP218      0.0015
    152  N          8.7140   -0.8350   12.7770 N.3   232  GLU232     -0.1245
    153  CA         8.5290   -0.3870   11.4070 C.3   232  GLU232      0.1567
    154  C          9.1710    0.9550   11.1210 C.2   232  GLU232      0.2260
    155  O          9.1740    1.8410   11.9640 O.2   232  GLU232     -0.2867
    156  CB         7.0370   -0.2910   11.0980 C.3   232  GLU232      0.0388
    157  CG         6.7000    0.4620    9.8210 C.3   232  GLU232      0.1160
    158  CD         5.2090    0.4720    9.5430 C.2   232  GLU232      0.3649
    159  OE1        4.4220    0.4540   10.5120 O.co2 232  GLU232     -0.2457
    160  OE2        4.8220    0.5030    8.3560 O.co2 232  GLU232     -0.2457
@<TRIPOS>BOND
     1   122   121    2
     2   121   120    1
     3   100    99    1
     4   100   101    2
     5   120   119    1
     6   120   123    1
     7    99   102    1
     8    99    98    1
     9   108   109    1
    10   119   110   am
    11   123   124    1
    12   102   103    1
    13   110   111    2
    14   110   109    1
    15    97    96    1
    16    27    28   ar
    17    27    25   ar
    18    18    17    1
    19   109   112    1
    20    28    26   ar
    21   124   125   ar
    22   124   126   ar
    23   104   103   ar
    24   104   106   ar
    25   103   105   ar
    26    96    93    1
    27   112   113    1
    28    15    17   ar
    29    15    13   ar
    30    25    24   ar
    31    17    16   ar
    32   125   127   ar
    33   126   128   ar
    34    26    24   ar
    35   106   107   ar
    36   105   107   ar
    37    24    23    1
    38    13    12   ar
    39    94    93    1
    40    94    95    2
    41    93    92    1
    42   113   114   ar
    43   113   115   ar
    44    16    14   ar
    45   127   128   ar
    46   114   116   ar
    47    92    82   am
    48   115   117   ar
    49    20    23    1
    50    20    19    1
    51    20    21    1
    52    12    14   ar
    53    12    11    1
    54    19     9   am
    55    82    83    2
    56    82    81    1
    57   116   118   ar
    58    81    80    1
    59    81    84    1
    60   137   135   ar
    61     8     9    1
    62     8    11    1
    63     8     7    1
    64     9    10    2
    65    21    22    2
    66   117   118   ar
    67    79    77   ar
    68    76    77    1
    69    76    73    1
    70   135   134    1
    71   135   136   ar
    72    71    69    1
    73   134   133    1
    74   129   130    1
    75    72    73    1
    76    84    85    1
    77    77    78   ar
    78    87    85   ar
    79    87    89   ar
    80   160   158   ar
    81    85    86   ar
    82    89    90   ar
    83    73    74    1
    84    75    74    2
    85   133   130    1
    86   130   131    1
    87    69    70    1
    88    69    66    1
    89   158   157    1
    90   158   159   ar
    91   151   150   ar
    92   151   149   ar
    93    86    88   ar
    94    90    91    1
    95    90    88   ar
    96   131   132    2
    97     1     2    1
    98   157   156    1
    99   150   148   ar
   100    55    56   ar
   101    55    53   ar
   102    29    30    1
   103     2     3    1
   104     2     5    1
   105    67    66    1
   106    67    68    2
   107     4     3    2
   108    66    65    1
   109   149   147   ar
   110    56    54   ar
   111   156   153    1
   112   154   153    1
   113   154   155    2
   114     6     5    1
   115    53    52   ar
   116    33    30    1
   117    33    34    1
   118   153   152    1
   119   148   145   ar
   120    30    31    1
   121   147   145   ar
   122   147   146   ar
   123    54    52   ar
   124    32    31    2
   125   145   143   ar
   126    64    62   ar
   127    52    51    1
   128    34    35   ar
   129    34    36   ar
   130   146   144   ar
   131    63    62   ar
   132    62    61    1
   133    35    37   ar
   134    36    38   ar
   135   143   144   ar
   136   143   142    1
   137    51    48    1
   138   139   138    1
   139   139   142    1
   140   139   140    1
   141    46    45    1
   142   141   140    2
   143    37    39   ar
   144    61    58    1
   145    38    39   ar
   146    48    47    1
   147    48    49    1
   148    59    60    2
   149    59    58    1
   150    39    40    1
   151    58    57    1
   152    45    42    1
   153    49    50    2
   154    41    42    1
   155    42    43    1
   156    44    43    2
