@<TRIPOS>MOLECULE
tmp/2evoB00.pdb
 145 144 0 0 0
SMALL
GASTEIGER

@<TRIPOS>ATOM
      1  N         10.4120    7.7470   73.5630 N.3    56  CYS56      -0.1235
      2  CA        11.1800    6.5590   73.9120 C.3    56  CYS56       0.1677
      3  C         11.8260    6.6570   75.2820 C.2    56  CYS56       0.2270
      4  O         11.8390    5.6920   76.0470 O.2    56  CYS56      -0.2867
      5  CB        12.2820    6.3270   72.8810 C.3    56  CYS56       0.0956
      6  SG        11.6840    6.1930   71.1940 S.3    56  CYS56      -0.0801
      7  N         10.2700    5.4680   78.6100 N.3    59  TYR59      -0.1227
      8  CA         9.1040    4.6430   78.3170 C.3    59  TYR59       0.1736
      9  C          9.3710    3.2210   78.7840 C.2    59  TYR59       0.2595
     10  O         10.1950    2.5150   78.2060 O.2    59  TYR59      -0.2718
     11  CB         8.8130    4.6430   76.8210 C.3    59  TYR59       0.0548
     12  CG         7.5210    3.9570   76.4660 C.ar   59  TYR59      -0.0200
     13  CD1        6.2940    4.5550   76.7430 C.ar   59  TYR59      -0.0009
     14  CD2        7.5230    2.7070   75.8580 C.ar   59  TYR59      -0.0009
     15  CE1        5.0970    3.9220   76.4200 C.ar   59  TYR59       0.0417
     16  CE2        6.3350    2.0640   75.5310 C.ar   59  TYR59       0.0417
     17  CZ         5.1280    2.6770   75.8130 C.ar   59  TYR59       0.1957
     18  OH         3.9570    2.0390   75.4820 O.3    59  TYR59      -0.2866
     19  N          8.6650    2.8090   79.8320 N.am   60  HIS60      -0.1975
     20  CA         8.8270    1.4820   80.4020 C.3    60  HIS60       0.1656
     21  C         10.2810    1.2090   80.7510 C.2    60  HIS60       0.2291
     22  O         10.7350    0.0640   80.7390 O.2    60  HIS60      -0.2864
     23  CB         8.2940    0.4250   79.4390 C.3    60  HIS60       0.0771
     24  CG         6.8000    0.3710   79.3820 C.ar   60  HIS60       0.0820
     25  ND1        6.0500   -0.4030   80.2410 N.ar   60  HIS60      -0.2267
     26  CD2        5.9150    1.0190   78.5910 C.ar   60  HIS60       0.1154
     27  CE1        4.7670   -0.2320   79.9780 C.ar   60  HIS60       0.1986
     28  NE2        4.6570    0.6270   78.9800 N.ar   60  HIS60      -0.2212
     29  N         12.9960    2.3750   79.0880 N.3    62  TYR62      -0.1241
     30  CA        13.9550    2.5300   77.9950 C.3    62  TYR62       0.1605
     31  C         14.8970    3.6880   78.3210 C.2    62  TYR62       0.2264
     32  O         14.4560    4.8120   78.5560 O.2    62  TYR62      -0.2867
     33  CB        13.2410    2.7920   76.6740 C.3    62  TYR62       0.0534
     34  CG        14.1720    2.6580   75.4920 C.ar   62  TYR62      -0.0201
     35  CD1       14.6310    1.4090   75.0820 C.ar   62  TYR62      -0.0009
     36  CD2       14.6290    3.7830   74.8170 C.ar   62  TYR62      -0.0009
     37  CE1       15.5310    1.2840   74.0240 C.ar   62  TYR62       0.0417
     38  CE2       15.5270    3.6740   73.7630 C.ar   62  TYR62       0.0417
     39  CZ        15.9750    2.4230   73.3730 C.ar   62  TYR62       0.1957
     40  OH        16.8780    2.3180   72.3390 O.3    62  TYR62      -0.2866
     41  N         15.7270    4.1870   69.0820 N.3    67  CYS67      -0.1235
     42  CA        16.2050    2.8120   69.0510 C.3    67  CYS67       0.1677
     43  C         17.0740    2.6740   67.8170 C.2    67  CYS67       0.2270
     44  O         16.6790    3.0750   66.7270 O.2    67  CYS67      -0.2867
     45  CB        15.0440    1.8290   68.9660 C.3    67  CYS67       0.0956
     46  SG        14.0960    1.7180   70.4800 S.3    67  CYS67      -0.0801
     47  N         14.7040   -2.4400   69.0900 N.3    76  HIS76      -0.1241
     48  CA        14.9970   -1.9330   70.4180 C.3    76  HIS76       0.1621
     49  C         16.4730   -1.9290   70.7690 C.2    76  HIS76       0.2264
     50  O         16.8450   -2.0300   71.9380 O.2    76  HIS76      -0.2867
     51  CB        14.1830   -2.7250   71.4390 C.3    76  HIS76       0.0745
     52  CG        12.7040   -2.6020   71.2330 C.ar   76  HIS76       0.0817
     53  ND1       11.8050   -3.5410   71.6910 N.ar   76  HIS76      -0.2268
     54  CD2       11.9690   -1.6480   70.6130 C.ar   76  HIS76       0.1154
     55  CE1       10.5800   -3.1730   71.3610 C.ar   76  HIS76       0.1986
     56  NE2       10.6510   -2.0280   70.7060 N.ar   76  HIS76      -0.2212
     57  N         14.6790    4.0200   64.9090 N.3    94  ASP94      -0.1239
     58  CA        13.2560    4.1570   65.1560 C.3    94  ASP94       0.1674
     59  C         13.0720    5.3520   66.0730 C.2    94  ASP94       0.2266
     60  O         13.5810    5.3760   67.2000 O.2    94  ASP94      -0.2867
     61  CB        12.7150    2.8850   65.8180 C.3    94  ASP94       0.1410
     62  CG        11.1990    2.8660   65.9010 C.2    94  ASP94       0.3668
     63  OD1       10.5710    3.9180   65.6660 O.co2  94  ASP94      -0.2456
     64  OD2       10.6420    1.7920   66.2100 O.co2  94  ASP94      -0.2456
     65  N          6.6640  -11.6680   67.0320 N.3   164  GLU164     -0.1231
     66  CA         6.5790  -11.1110   68.3820 C.3   164  GLU164      0.1699
     67  C          6.3060   -9.6150   68.4340 C.2   164  GLU164      0.2592
     68  O          5.7200   -9.1240   69.3960 O.2   164  GLU164     -0.2718
     69  CB         7.8590  -11.4000   69.1720 C.3   164  GLU164      0.0402
     70  CG         8.1260  -12.8650   69.4760 C.3   164  GLU164      0.1161
     71  CD         8.4470  -13.6790   68.2410 C.2   164  GLU164      0.3649
     72  OE1        8.8340  -13.0850   67.2140 O.co2 164  GLU164     -0.2457
     73  OE2        8.3300  -14.9200   68.3010 O.co2 164  GLU164     -0.2457
     74  N          6.7360   -8.8850   67.4120 N.am  165  TYR165     -0.1962
     75  CA         6.5120   -7.4480   67.3970 C.3   165  TYR165      0.1771
     76  C          5.6010   -7.0110   66.2640 C.2   165  TYR165      0.2619
     77  O          5.5970   -7.6000   65.1830 O.2   165  TYR165     -0.2715
     78  CB         7.8480   -6.7110   67.3550 C.3   165  TYR165      0.0574
     79  CG         8.6460   -6.9600   68.6110 C.ar  165  TYR165     -0.0198
     80  CD1        9.3850   -8.1320   68.7720 C.ar  165  TYR165     -0.0009
     81  CD2        8.6000   -6.0610   69.6720 C.ar  165  TYR165     -0.0009
     82  CE1       10.0560   -8.4020   69.9650 C.ar  165  TYR165      0.0417
     83  CE2        9.2620   -6.3190   70.8660 C.ar  165  TYR165      0.0417
     84  CZ         9.9870   -7.4900   71.0090 C.ar  165  TYR165      0.1957
     85  OH        10.6380   -7.7430   72.1990 O.3   165  TYR165     -0.2866
     86  N          4.8320   -5.9630   66.5150 N.am  166  CYS166     -0.1968
     87  CA         3.8740   -5.5020   65.5270 C.3   166  CYS166      0.1712
     88  C          3.6490   -3.9990   65.5250 C.2   166  CYS166      0.2296
     89  O          4.2080   -3.2650   66.3470 O.2   166  CYS166     -0.2864
     90  CB         2.5430   -6.1920   65.8040 C.3   166  CYS166      0.0983
     91  SG         1.9550   -5.8750   67.4880 S.3   166  CYS166     -0.0798
     92  N          1.0590   -0.6700   65.8080 N.3   168  HIS168     -0.1241
     93  CA         0.1750   -0.3850   66.9300 C.3   168  HIS168      0.1621
     94  C         -0.5870    0.9070   66.7740 C.2   168  HIS168      0.2264
     95  O         -0.1410    1.8200   66.0880 O.2   168  HIS168     -0.2867
     96  CB         1.0150   -0.2850   68.1930 C.3   168  HIS168      0.0745
     97  CG         2.1880    0.6340   68.0430 C.ar  168  HIS168      0.0817
     98  ND1        2.1020    1.9950   68.2450 N.ar  168  HIS168     -0.2268
     99  CD2        3.4540    0.3960   67.6220 C.ar  168  HIS168      0.1154
    100  CE1        3.2610    2.5560   67.9520 C.ar  168  HIS168      0.1986
    101  NE2        4.0990    1.6080   67.5710 N.ar  168  HIS168     -0.2212
    102  N          1.5960    5.8770   73.2780 N.3   174  PHE174     -0.1227
    103  CA         2.6420    5.3840   72.3920 C.3   174  PHE174      0.1736
    104  C          2.1520    4.1390   71.6600 C.2   174  PHE174      0.2595
    105  O          2.1210    4.1020   70.4300 O.2   174  PHE174     -0.2718
    106  CB         3.8840    5.0460   73.2210 C.3   174  PHE174      0.0547
    107  CG         5.1490    4.8620   72.4140 C.ar  174  PHE174     -0.0202
    108  CD1        5.1100    4.5180   71.0680 C.ar  174  PHE174     -0.0042
    109  CD2        6.3890    4.9720   73.0390 C.ar  174  PHE174     -0.0042
    110  CE1        6.2830    4.2820   70.3570 C.ar  174  PHE174     -0.0003
    111  CE2        7.5710    4.7370   72.3370 C.ar  174  PHE174     -0.0003
    112  CZ         7.5190    4.3900   70.9960 C.ar  174  PHE174     -0.0000
    113  N          1.7800    3.1200   72.4280 N.am  175  HIS175     -0.1975
    114  CA         1.2970    1.8740   71.8610 C.3   175  HIS175      0.1656
    115  C         -0.1200    1.6010   72.3230 C.2   175  HIS175      0.2291
    116  O         -0.3340    1.0000   73.3780 O.2   175  HIS175     -0.2864
    117  CB         2.1980    0.7110   72.2740 C.3   175  HIS175      0.0771
    118  CG         3.6420    0.9310   71.9600 C.ar  175  HIS175      0.0820
    119  ND1        4.5070    1.5490   72.8360 N.ar  175  HIS175     -0.2267
    120  CD2        4.3670    0.6450   70.8530 C.ar  175  HIS175      0.1154
    121  CE1        5.7030    1.6350   72.2820 C.ar  175  HIS175      0.1986
    122  NE2        5.6450    1.0950   71.0790 N.ar  175  HIS175     -0.2212
    123  N          4.8960   -1.3960   60.8390 N.3   201  GLU201     -0.1245
    124  CA         6.3480   -1.4350   60.9710 C.3   201  GLU201      0.1567
    125  C          6.9020   -2.8410   60.8810 C.2   201  GLU201      0.2260
    126  O          7.4740   -3.3580   61.8400 O.2   201  GLU201     -0.2867
    127  CB         6.7370   -0.8170   62.3110 C.3   201  GLU201      0.0388
    128  CG         5.9040   -1.3260   63.4750 C.3   201  GLU201      0.1160
    129  CD         6.2290   -0.6180   64.7660 C.2   201  GLU201      0.3649
    130  OE1        7.3380   -0.8410   65.2930 O.co2 201  GLU201     -0.2457
    131  OE2        5.3780    0.1640   65.2430 O.co2 201  GLU201     -0.2457
    132  N         15.7220   -5.3770   76.4470 N.3   218  TRP218     -0.1241
    133  CA        15.2300   -4.6690   75.2700 C.3   218  TRP218      0.1605
    134  C         15.7080   -5.2140   73.9380 C.2   218  TRP218      0.2264
    135  O         14.9110   -5.5340   73.0560 O.2   218  TRP218     -0.2867
    136  CB        15.6220   -3.1940   75.3430 C.3   218  TRP218      0.0550
    137  CG        14.9330   -2.4400   76.4190 C.ar  218  TRP218      0.0003
    138  CD1       15.4230   -2.1350   77.6560 C.ar  218  TRP218      0.0946
    139  CD2       13.6110   -1.9000   76.3640 C.ar  218  TRP218      0.0152
    140  NE1       14.4850   -1.4330   78.3760 N.ar  218  TRP218     -0.2442
    141  CE2       13.3620   -1.2760   77.6050 C.ar  218  TRP218      0.0810
    142  CE3       12.6100   -1.8830   75.3830 C.ar  218  TRP218      0.0012
    143  CZ2       12.1510   -0.6390   77.8940 C.ar  218  TRP218      0.0191
    144  CZ3       11.4050   -1.2500   75.6690 C.ar  218  TRP218      0.0001
    145  CH2       11.1880   -0.6360   76.9170 C.ar  218  TRP218      0.0015
@<TRIPOS>BOND
     1   123   124    1
     2   125   124    1
     3   125   126    2
     4   124   127    1
     5   127   128    1
     6   128   129    1
     7   129   131   ar
     8   129   130   ar
     9    57    58    1
    10    58    61    1
    11    58    59    1
    12    77    76    2
    13    88    87    1
    14    88    89    2
    15    87    90    1
    16    87    86    1
    17    63    62   ar
    18    90    91    1
    19    92    93    1
    20    61    62    1
    21    62    64   ar
    22    59    60    2
    23    95    94    2
    24    76    86   am
    25    76    75    1
    26    44    43    2
    27    94    93    1
    28    93    96    1
    29    65    66    1
    30    72    71   ar
    31    78    75    1
    32    78    79    1
    33    75    74    1
    34    74    67   am
    35   101    99   ar
    36   101   100   ar
    37    99    97   ar
    38    43    42    1
    39   100    98   ar
    40    97    96    1
    41    97    98   ar
    42    71    73   ar
    43    71    70    1
    44    66    67    1
    45    66    69    1
    46    67    68    2
    47    79    80   ar
    48    79    81   ar
    49    80    82   ar
    50    45    42    1
    51    45    46    1
    52    42    41    1
    53    47    48    1
    54    69    70    1
    55    81    83   ar
    56    82    84   ar
    57   110   112   ar
    58   110   108   ar
    59    48    49    1
    60    48    51    1
    61   105   104    2
    62    54    56   ar
    63    54    52   ar
    64    56    55   ar
    65    49    50    2
    66   120   122   ar
    67   120   118   ar
    68    83    84   ar
    69   112   111   ar
    70    84    85    1
    71   108   107   ar
    72   122   121   ar
    73     6     5    1
    74    52    51    1
    75    52    53   ar
    76    55    53   ar
    77   104   103    1
    78   104   113   am
    79   114   117    1
    80   114   115    1
    81   114   113    1
    82   118   117    1
    83   118   119   ar
    84   121   119   ar
    85   115   116    2
    86   111   109   ar
    87    40    39    1
    88   103   106    1
    89   103   102    1
    90   107   109   ar
    91   107   106    1
    92     5     2    1
    93   135   134    2
    94    39    38   ar
    95    39    37   ar
    96     1     2    1
    97    38    36   ar
    98     2     3    1
    99   134   133    1
   100    37    35   ar
   101    36    34   ar
   102    35    34   ar
   103   133   136    1
   104   133   132    1
   105     3     4    2
   106   136   137    1
   107   142   144   ar
   108   142   139   ar
   109    18    17    1
   110    34    33    1
   111    16    17   ar
   112    16    14   ar
   113   144   145   ar
   114    17    15   ar
   115    14    12   ar
   116   139   137   ar
   117   139   141   ar
   118   137   138   ar
   119    15    13   ar
   120    12    13   ar
   121    12    11    1
   122    33    30    1
   123    11     8    1
   124   145   143   ar
   125   141   143   ar
   126   141   140   ar
   127   138   140   ar
   128    30    31    1
   129    30    29    1
   130    10     9    2
   131     8     7    1
   132     8     9    1
   133    31    32    2
   134    26    28   ar
   135    26    24   ar
   136     9    19   am
   137    28    27   ar
   138    24    23    1
   139    24    25   ar
   140    23    20    1
   141    19    20    1
   142    27    25   ar
   143    20    21    1
   144    22    21    2
