@<TRIPOS>MOLECULE
tmp/2evsA00.pdb
 90 85 0 0 0
SMALL
GASTEIGER

@<TRIPOS>ATOM
      1  N         62.6540   -4.3800   16.1570 N.3    44  ASP44      -0.1239
      2  CA        63.8920   -4.3370   16.9220 C.3    44  ASP44       0.1674
      3  C         64.5840   -2.9860   16.8550 C.2    44  ASP44       0.2266
      4  O         64.9610   -2.4370   17.9020 O.2    44  ASP44      -0.2867
      5  CB        64.8930   -5.3800   16.4150 C.3    44  ASP44       0.1410
      6  CG        65.9390   -5.7060   17.4420 C.2    44  ASP44       0.3668
      7  OD1       65.5710   -5.9370   18.6350 O.co2  44  ASP44      -0.2456
      8  OD2       67.1090   -5.7560   17.0670 O.co2  44  ASP44      -0.2456
      9  N         64.7950   -0.0950   19.9650 N.3    48  ASN48      -0.1240
     10  CA        66.0970    0.4450   20.4180 C.3    48  ASN48       0.1653
     11  C         66.1350    1.9620   20.2860 C.2    48  ASN48       0.2266
     12  O         66.6130    2.6510   21.1690 O.2    48  ASN48      -0.2867
     13  CB        67.2900   -0.2310   19.7390 C.3    48  ASN48       0.1155
     14  CG        67.6040   -1.5700   20.3460 C.2    48  ASN48       0.2627
     15  OD1       67.4210   -1.7460   21.5700 O.2    48  ASN48      -0.2716
     16  ND2       68.0830   -2.5420   19.5090 N.am   48  ASN48      -0.0877
     17  N         64.1280    3.3280   23.3280 N.3    51  LYS51      -0.1245
     18  CA        64.8890    3.2420   24.5840 C.3    51  LYS51       0.1561
     19  C         65.9730    4.3190   24.7050 C.2    51  LYS51       0.2260
     20  O         66.2680    4.7830   25.8000 O.2    51  LYS51      -0.2867
     21  CB        65.5860    1.9170   24.7450 C.3    51  LYS51       0.0271
     22  CG        64.7160    0.7360   24.9680 C.3    51  LYS51       0.0035
     23  CD        65.6400   -0.4750   25.1030 C.3    51  LYS51       0.0206
     24  CE        64.9360   -1.7850   25.2130 C.3    51  LYS51       0.1093
     25  NZ        65.9950   -2.8490   25.2630 N.3    51  LYS51      -0.1314
     26  N         76.5840   -2.9460   29.6090 N.3    83  LYS83      -0.1245
     27  CA        75.3320   -3.6880   29.4420 C.3    83  LYS83       0.1561
     28  C         74.1980   -3.0100   30.1780 C.2    83  LYS83       0.2260
     29  O         73.5650   -3.6000   31.0470 O.2    83  LYS83      -0.2867
     30  CB        75.4640   -5.1520   29.8990 C.3    83  LYS83       0.0271
     31  CG        74.5230   -6.0940   29.1660 C.3    83  LYS83       0.0035
     32  CD        74.7130   -7.5440   29.5980 C.3    83  LYS83       0.0206
     33  CE        73.6240   -8.4220   28.9780 C.3    83  LYS83       0.1093
     34  NZ        73.7760   -9.9050   29.2390 N.3    83  LYS83      -0.1314
     35  N         73.3560    0.1760   25.8060 N.3    88  LEU88      -0.1231
     36  CA        73.1060   -1.1640   25.2670 C.3    88  LEU88       0.1693
     37  C         72.1680   -1.1260   24.0610 C.2    88  LEU88       0.2591
     38  O         72.3900   -1.8370   23.0710 O.2    88  LEU88      -0.2718
     39  CB        72.5240   -2.0620   26.3550 C.3    88  LEU88       0.0284
     40  CG        72.2570   -3.5370   26.0150 C.3    88  LEU88       0.0019
     41  CD1       73.5100   -4.2050   25.5850 C.3    88  LEU88       0.0001
     42  CD2       71.6600   -4.2690   27.2550 C.3    88  LEU88       0.0001
     43  N         71.1040   -0.3300   24.1670 N.am   89  ALA89      -0.1980
     44  CA        70.1960   -0.0940   23.0580 C.3    89  ALA89       0.1597
     45  C         70.9600    0.4260   21.7990 C.2    89  ALA89       0.2287
     46  O         70.7830   -0.1170   20.6970 O.2    89  ALA89      -0.2864
     47  CB        69.0840    0.8400   23.4710 C.3    89  ALA89       0.0319
     48  N         73.0970   -2.3230   20.1300 N.3    92  TRP92      -0.1241
     49  CA        72.2910   -3.1110   19.2240 C.3    92  TRP92       0.1605
     50  C         71.8100   -2.2950   18.0300 C.2    92  TRP92       0.2264
     51  O         71.8500   -2.7850   16.8940 O.2    92  TRP92      -0.2867
     52  CB        71.1540   -3.7590   19.9820 C.3    92  TRP92       0.0550
     53  CG        71.6430   -4.9210   20.7950 C.ar   92  TRP92       0.0003
     54  CD1       72.0070   -4.9150   22.1020 C.ar   92  TRP92       0.0946
     55  CD2       71.8850   -6.2490   20.3210 C.ar   92  TRP92       0.0152
     56  NE1       72.4410   -6.1550   22.4810 N.ar   92  TRP92      -0.2442
     57  CE2       72.3770   -6.9950   21.4070 C.ar   92  TRP92       0.0810
     58  CE3       71.7160   -6.8870   19.0790 C.ar   92  TRP92       0.0012
     59  CZ2       72.6710   -8.3610   21.3030 C.ar   92  TRP92       0.0191
     60  CZ3       72.0350   -8.2060   18.9640 C.ar   92  TRP92       0.0001
     61  CH2       72.5080   -8.9390   20.0720 C.ar   92  TRP92       0.0015
     62  N         73.3290  -13.4380   17.1620 N.3   136  HIS136     -0.1241
     63  CA        72.0120  -14.0840   17.3170 C.3   136  HIS136      0.1621
     64  C         72.1910  -15.5840   17.5390 C.2   136  HIS136      0.2264
     65  O         72.9040  -16.2450   16.7710 O.2   136  HIS136     -0.2867
     66  CB        71.1920  -13.8940   16.0560 C.3   136  HIS136      0.0745
     67  CG        70.6380  -12.5100   15.8940 C.ar  136  HIS136      0.0817
     68  ND1       70.0390  -12.0780   14.7280 N.ar  136  HIS136     -0.2268
     69  CD2       70.5890  -11.4650   16.7520 C.ar  136  HIS136      0.1154
     70  CE1       69.6330  -10.8330   14.8860 C.ar  136  HIS136      0.1986
     71  NE2       69.9730  -10.4330   16.0930 N.ar  136  HIS136     -0.2212
     72  N         78.0590  -10.8870   23.2890 N.3   203  TYR203     -0.1241
     73  CA        77.1160  -11.9630   23.5940 C.3   203  TYR203      0.1605
     74  C         76.0310  -12.0820   22.5220 C.2   203  TYR203      0.2264
     75  O         75.7150  -11.1420   21.7840 O.2   203  TYR203     -0.2867
     76  CB        76.4650  -11.7910   24.9780 C.3   203  TYR203      0.0534
     77  CG        75.4420  -10.6810   25.0180 C.ar  203  TYR203     -0.0201
     78  CD1       74.0770  -10.9440   24.9570 C.ar  203  TYR203     -0.0009
     79  CD2       75.8550   -9.3520   25.1190 C.ar  203  TYR203     -0.0009
     80  CE1       73.1440   -9.8780   24.9750 C.ar  203  TYR203      0.0417
     81  CE2       74.9480   -8.3060   25.1370 C.ar  203  TYR203      0.0417
     82  CZ        73.6190   -8.5550   25.0450 C.ar  203  TYR203      0.1957
     83  OH        72.7740   -7.4660   25.1020 O.3   203  TYR203     -0.2866
     84  N         72.0620  -13.1600   21.5500 N.3   205  VAL205     -0.1245
     85  CA        70.7000  -13.4010   21.9680 C.3   205  VAL205      0.1561
     86  C         70.0720  -14.2550   20.8920 C.2   205  VAL205      0.2260
     87  O         69.4580  -15.2290   21.2310 O.2   205  VAL205     -0.2867
     88  CB        69.8930  -12.1110   22.1740 C.3   205  VAL205      0.0252
     89  CG1       70.6760  -11.1590   23.0500 C.3   205  VAL205      0.0019
     90  CG2       69.5960  -11.4780   20.8710 C.3   205  VAL205      0.0019
@<TRIPOS>BOND
     1    68    70   ar
     2    68    67   ar
     3    70    71   ar
     4    67    66    1
     5    67    69   ar
     6    66    63    1
     7    71    69   ar
     8     1     2    1
     9     5     2    1
    10     5     6    1
    11    65    64    2
    12     3     2    1
    13     3     4    2
    14    51    50    2
    15     8     6   ar
    16    62    63    1
    17    63    64    1
    18     6     7   ar
    19    50    49    1
    20    60    58   ar
    21    60    61   ar
    22    58    55   ar
    23    49    52    1
    24    49    48    1
    25    16    14   am
    26    13    14    1
    27    13    10    1
    28     9    10    1
    29    52    53    1
    30    61    59   ar
    31    11    10    1
    32    11    12    2
    33    55    53   ar
    34    55    57   ar
    35    14    15    2
    36    46    45    2
    37    53    54   ar
    38    90    88    1
    39    86    87    2
    40    86    85    1
    41    59    57   ar
    42    57    56   ar
    43    84    85    1
    44    75    74    2
    45    45    44    1
    46    85    88    1
    47    54    56   ar
    48    88    89    1
    49    74    73    1
    50    44    47    1
    51    44    43    1
    52    38    37    2
    53    72    73    1
    54    17    18    1
    55    73    76    1
    56    37    43   am
    57    37    36    1
    58    18    19    1
    59    18    21    1
    60    19    20    2
    61    21    22    1
    62    78    80   ar
    63    78    77   ar
    64    22    23    1
    65    80    82   ar
    66    76    77    1
    67    77    79   ar
    68    82    83    1
    69    82    81   ar
    70    23    24    1
    71    79    81   ar
    72    24    25    1
    73    36    35    1
    74    36    39    1
    75    41    40    1
    76    40    39    1
    77    40    42    1
    78    33    34    1
    79    33    32    1
    80    31    32    1
    81    31    30    1
    82    27    26    1
    83    27    30    1
    84    27    28    1
    85    28    29    2
