@<TRIPOS>MOLECULE
tmp/2evsA01.pdb
 139 135 0 0 0
SMALL
GASTEIGER

@<TRIPOS>ATOM
      1  N         64.7270   11.7240    6.4710 N.3     3  HIS3       -0.1241
      2  CA        65.5670   10.5840    6.8720 C.3     3  HIS3        0.1621
      3  C         67.0270   10.8790    6.5730 C.2     3  HIS3        0.2264
      4  O         67.8850   10.1360    7.0210 O.2     3  HIS3       -0.2867
      5  CB        65.1460    9.2730    6.1780 C.3     3  HIS3        0.0745
      6  CG        65.1130    9.3780    4.6860 C.ar    3  HIS3        0.0817
      7  ND1       64.0740    9.9750    4.0110 N.ar    3  HIS3       -0.2268
      8  CD2       65.9950    8.9780    3.7420 C.ar    3  HIS3        0.1154
      9  CE1       64.3190    9.9440    2.7120 C.ar    3  HIS3        0.1986
     10  NE2       65.4800    9.3420    2.5210 N.ar    3  HIS3       -0.2212
     11  N         63.3870    5.6060    9.5520 N.3    26  LEU26      -0.1245
     12  CA        63.7800    4.3920    8.9140 C.3    26  LEU26       0.1561
     13  C         62.7630    3.2590    9.0880 C.2    26  LEU26       0.2260
     14  O         62.4350    2.6280    8.0840 O.2    26  LEU26      -0.2867
     15  CB        65.1810    3.9800    9.3540 C.3    26  LEU26       0.0270
     16  CG        66.2780    4.8920    8.8060 C.3    26  LEU26       0.0019
     17  CD1       67.6270    4.3830    9.2580 C.3    26  LEU26       0.0001
     18  CD2       66.2120    4.9600    7.2930 C.3    26  LEU26       0.0001
     19  N         59.9340    2.6220    6.4950 N.3    29  PHE29      -0.1227
     20  CA        60.3400    2.1510    5.1620 C.3    29  PHE29       0.1736
     21  C         60.3840    0.6150    5.0340 C.2    29  PHE29       0.2595
     22  O         60.4930    0.0820    3.9140 O.2    29  PHE29      -0.2718
     23  CB        61.7270    2.6840    4.7840 C.3    29  PHE29       0.0547
     24  CG        61.7450    4.1080    4.2720 C.ar   29  PHE29      -0.0202
     25  CD1       61.1830    4.4280    3.0460 C.ar   29  PHE29      -0.0042
     26  CD2       62.4110    5.1080    4.9860 C.ar   29  PHE29      -0.0042
     27  CE1       61.2290    5.7310    2.5590 C.ar   29  PHE29      -0.0003
     28  CE2       62.4640    6.4080    4.5220 C.ar   29  PHE29      -0.0003
     29  CZ        61.8740    6.7340    3.3100 C.ar   29  PHE29      -0.0000
     30  N         60.3560   -0.0860    6.1680 N.am   30  PHE30      -0.1976
     31  CA        60.2430   -1.5500    6.1720 C.3    30  PHE30       0.1639
     32  C         58.9280   -2.0060    5.5560 C.2    30  PHE30       0.2290
     33  O         58.8380   -3.1220    5.0830 O.2    30  PHE30      -0.2864
     34  CB        60.3610   -2.1430    7.5790 C.3    30  PHE30       0.0560
     35  CG        61.7850   -2.2940    8.0500 C.ar   30  PHE30      -0.0200
     36  CD1       62.4100   -3.5220    8.0410 C.ar   30  PHE30      -0.0042
     37  CD2       62.5040   -1.1980    8.4740 C.ar   30  PHE30      -0.0042
     38  CE1       63.7300   -3.6430    8.4530 C.ar   30  PHE30      -0.0003
     39  CE2       63.7910   -1.3270    8.9020 C.ar   30  PHE30      -0.0003
     40  CZ        64.4100   -2.5450    8.8830 C.ar   30  PHE30      -0.0000
     41  N         58.8920   -3.2500    1.8890 N.3    33  LEU33      -0.1245
     42  CA        59.2370   -4.6410    1.6530 C.3    33  LEU33       0.1561
     43  C         57.9660   -5.4180    1.3220 C.2    33  LEU33       0.2260
     44  O         58.0080   -6.4840    0.7110 O.2    33  LEU33      -0.2867
     45  CB        59.9170   -5.2480    2.8810 C.3    33  LEU33       0.0270
     46  CG        61.2360   -4.5940    3.3130 C.3    33  LEU33       0.0019
     47  CD1       61.6870   -5.1890    4.6270 C.3    33  LEU33       0.0001
     48  CD2       62.3290   -4.7670    2.2340 C.3    33  LEU33       0.0001
     49  N         73.2160   -3.2640    9.0650 N.3    99  PHE99      -0.1227
     50  CA        72.3280   -4.1120    8.2540 C.3    99  PHE99       0.1736
     51  C         71.5640   -3.3380    7.1310 C.2    99  PHE99       0.2595
     52  O         71.6580   -3.7100    5.9830 O.2    99  PHE99      -0.2718
     53  CB        71.3600   -4.9180    9.1590 C.3    99  PHE99       0.0547
     54  CG        70.2880   -5.6430    8.4040 C.ar   99  PHE99      -0.0202
     55  CD1       70.5760   -6.8440    7.7530 C.ar   99  PHE99      -0.0042
     56  CD2       69.0320   -5.1010    8.2600 C.ar   99  PHE99      -0.0042
     57  CE1       69.6160   -7.5300    7.0150 C.ar   99  PHE99      -0.0003
     58  CE2       68.0660   -5.7640    7.5000 C.ar   99  PHE99      -0.0003
     59  CZ        68.3760   -7.0080    6.8750 C.ar   99  PHE99      -0.0000
     60  N         70.8330   -2.2730    7.4690 N.am  100  ILE100     -0.1980
     61  CA        70.1180   -1.4930    6.4870 C.3   100  ILE100      0.1595
     62  C         71.0320   -0.9010    5.3930 C.2   100  ILE100      0.2287
     63  O         70.7320   -1.0140    4.2010 O.2   100  ILE100     -0.2864
     64  CB        69.2680   -0.3400    7.1780 C.3   100  ILE100      0.0276
     65  CG1       68.1390   -0.9400    8.0220 C.3   100  ILE100      0.0022
     66  CG2       68.7180    0.6720    6.1220 C.3   100  ILE100      0.0022
     67  CD1       67.3910    0.0680    8.8510 C.3   100  ILE100      0.0001
     68  N         72.5610   -3.7200    3.1430 N.3   103  PHE103     -0.1227
     69  CA        71.4520   -4.0910    2.2720 C.3   103  PHE103      0.1736
     70  C         71.2660   -3.0850    1.1250 C.2   103  PHE103      0.2595
     71  O         71.2270   -3.4790   -0.0380 O.2   103  PHE103     -0.2718
     72  CB        70.1800   -4.2680    3.1230 C.3   103  PHE103      0.0547
     73  CG        68.9300   -4.4560    2.3300 C.ar  103  PHE103     -0.0202
     74  CD1       68.6770   -5.6390    1.6820 C.ar  103  PHE103     -0.0042
     75  CD2       67.9770   -3.4460    2.2660 C.ar  103  PHE103     -0.0042
     76  CE1       67.5040   -5.8170    0.9630 C.ar  103  PHE103     -0.0003
     77  CE2       66.7990   -3.6180    1.5440 C.ar  103  PHE103     -0.0003
     78  CZ        66.5570   -4.8150    0.9070 C.ar  103  PHE103     -0.0000
     79  N         71.1590   -1.7940    1.4360 N.am  104  LEU104     -0.1980
     80  CA        70.7710   -0.8140    0.4060 C.3   104  LEU104      0.1596
     81  C         71.8960   -0.6150   -0.6070 C.2   104  LEU104      0.2287
     82  O         71.6700   -0.4970   -1.7910 O.2   104  LEU104     -0.2864
     83  CB        70.4680    0.5270    1.0250 C.3   104  LEU104      0.0297
     84  CG        69.1710    0.6580    1.8480 C.3   104  LEU104      0.0022
     85  CD1       69.0170    2.0820    2.3710 C.3   104  LEU104      0.0001
     86  CD2       67.9520    0.2220    0.9990 C.3   104  LEU104      0.0001
     87  N         60.0680   -3.1760   -4.6000 N.3   157  PHE157     -0.1241
     88  CA        60.7100   -2.4780   -3.4890 C.3   157  PHE157      0.1605
     89  C         61.0700   -1.0340   -3.8300 C.2   157  PHE157      0.2264
     90  O         60.8260   -0.1180   -3.0320 O.2   157  PHE157     -0.2867
     91  CB        61.9550   -3.2580   -3.0390 C.3   157  PHE157      0.0534
     92  CG        62.7300   -2.5860   -1.9560 C.ar  157  PHE157     -0.0203
     93  CD1       62.1760   -2.3990   -0.7050 C.ar  157  PHE157     -0.0042
     94  CD2       64.0370   -2.1510   -2.1810 C.ar  157  PHE157     -0.0042
     95  CE1       62.9050   -1.7890    0.3110 C.ar  157  PHE157     -0.0003
     96  CE2       64.7550   -1.5170   -1.1810 C.ar  157  PHE157     -0.0003
     97  CZ        64.1970   -1.3510    0.0640 C.ar  157  PHE157     -0.0000
     98  N         59.4450    2.4170   -2.4810 N.3   161  LEU161     -0.1245
     99  CA        60.2440    3.4780   -1.8240 C.3   161  LEU161      0.1561
    100  C         59.9250    4.8890   -2.3360 C.2   161  LEU161      0.2260
    101  O         59.9420    5.8450   -1.5710 O.2   161  LEU161     -0.2867
    102  CB        61.7540    3.2370   -1.9790 C.3   161  LEU161      0.0270
    103  CG        62.4380    2.1970   -1.0970 C.3   161  LEU161      0.0019
    104  CD1       63.8720    1.9810   -1.5480 C.3   161  LEU161      0.0001
    105  CD2       62.3980    2.5880    0.3610 C.3   161  LEU161      0.0001
    106  N         65.5400    6.8260   -8.0990 N.3   172  CYS172     -0.1235
    107  CA        65.3480    6.3190   -6.7580 C.3   172  CYS172      0.1677
    108  C         66.6640    5.7640   -6.1720 C.2   172  CYS172      0.2270
    109  O         66.9780    5.9960   -5.0040 O.2   172  CYS172     -0.2867
    110  CB        64.2910    5.2240   -6.7610 C.3   172  CYS172      0.0956
    111  SG        64.1790    4.3510   -5.2000 S.3   172  CYS172     -0.0801
    112  N         68.8680    8.5530   -5.1440 N.3   175  LYS175     -0.1231
    113  CA        68.4200    8.9630   -3.8070 C.3   175  LYS175      0.1693
    114  C         68.8700    8.0430   -2.6760 C.2   175  LYS175      0.2591
    115  O         69.1520    8.5070   -1.5850 O.2   175  LYS175     -0.2718
    116  CB        66.9030    9.0660   -3.7810 C.3   175  LYS175      0.0285
    117  CG        66.4020   10.2590   -4.5800 C.3   175  LYS175      0.0035
    118  CD        64.9180   10.1780   -4.8340 C.3   175  LYS175      0.0206
    119  CE        64.3320   11.5660   -5.0430 C.3   175  LYS175      0.1093
    120  NZ        65.3080   12.4760   -5.7280 N.3   175  LYS175     -0.1314
    121  N         68.9220    6.7450   -2.9100 N.am  176  ILE176     -0.1980
    122  CA        69.4780    5.8460   -1.8970 C.3   176  ILE176      0.1595
    123  C         70.9770    6.1230   -1.6770 C.2   176  ILE176      0.2287
    124  O         71.4300    6.1790   -0.5400 O.2   176  ILE176     -0.2864
    125  CB        69.2430    4.3480   -2.2560 C.3   176  ILE176      0.0276
    126  CG1       67.7390    4.0540   -2.3070 C.3   176  ILE176      0.0022
    127  CG2       69.9330    3.4730   -1.2500 C.3   176  ILE176      0.0022
    128  CD1       67.3560    2.6560   -2.7560 C.3   176  ILE176      0.0001
    129  N         71.4280    9.2420    0.3930 N.3   179  PHE179     -0.1241
    130  CA        71.1550    8.9390    1.8200 C.3   179  PHE179      0.1605
    131  C         72.3400    8.1850    2.5040 C.2   179  PHE179      0.2264
    132  O         72.7260    8.4630    3.6560 O.2   179  PHE179     -0.2867
    133  CB        69.8130    8.1990    1.9370 C.3   179  PHE179      0.0534
    134  CG        69.6600    7.4300    3.2090 C.ar  179  PHE179     -0.0203
    135  CD1       69.3130    8.0610    4.3860 C.ar  179  PHE179     -0.0042
    136  CD2       69.8320    6.0570    3.2190 C.ar  179  PHE179     -0.0042
    137  CE1       69.1760    7.3160    5.5760 C.ar  179  PHE179     -0.0003
    138  CE2       69.7230    5.3220    4.4080 C.ar  179  PHE179     -0.0003
    139  CZ        69.4140    5.9660    5.5680 C.ar  179  PHE179     -0.0000
@<TRIPOS>BOND
     1   106   107    1
     2   110   107    1
     3   110   111    1
     4   107   108    1
     5   108   109    2
     6   120   119    1
     7   112   113    1
     8   119   118    1
     9   118   117    1
    10    87    88    1
    11   117   116    1
    12    89    88    1
    13    89    90    2
    14   113   116    1
    15   113   114    1
    16    88    91    1
    17    91    92    1
    18   121   114   am
    19   121   122    1
    20   128   126    1
    21   114   115    2
    22    98    99    1
    23   100    99    1
    24   100   101    2
    25   126   125    1
    26   125   122    1
    27   125   127    1
    28    94    92   ar
    29    94    96   ar
    30   102    99    1
    31   102   103    1
    32    92    93   ar
    33   122   123    1
    34    82    81    2
    35   123   124    2
    36   104   103    1
    37    96    97   ar
    38   103   105    1
    39    93    95   ar
    40    81    80    1
    41    71    70    2
    42    97    95   ar
    43   129   130    1
    44    80    83    1
    45    80    79    1
    46    44    43    2
    47    78    76   ar
    48    78    77   ar
    49    76    74   ar
    50    86    84    1
    51    83    84    1
    52    70    79   am
    53    70    69    1
    54    43    42    1
    55    77    75   ar
    56    42    41    1
    57    42    45    1
    58    74    73   ar
    59   130   133    1
    60   130   131    1
    61    84    85    1
    62   133   134    1
    63    48    46    1
    64    75    73   ar
    65    69    72    1
    66    69    68    1
    67    73    72    1
    68   131   132    2
    69    10     9   ar
    70    10     8   ar
    71    27    25   ar
    72    27    29   ar
    73     9     7   ar
    74    45    46    1
    75    25    24   ar
    76   134   136   ar
    77   134   135   ar
    78   136   138   ar
    79    29    28   ar
    80    46    47    1
    81     8     6   ar
    82    22    21    2
    83     7     6   ar
    84    63    62    2
    85    24    23    1
    86    24    26   ar
    87   135   137   ar
    88   138   139   ar
    89    28    26   ar
    90     6     5    1
    91    23    20    1
    92    21    20    1
    93    21    30   am
    94    33    32    2
    95    20    19    1
    96    62    61    1
    97    32    31    1
    98   139   137   ar
    99    52    51    2
   100    66    64    1
   101    30    31    1
   102    31    34    1
   103     5     2    1
   104     1     2    1
   105    61    64    1
   106    61    60    1
   107     3     2    1
   108     3     4    2
   109    59    57   ar
   110    59    58   ar
   111    57    55   ar
   112    51    60   am
   113    51    50    1
   114    64    65    1
   115    18    16    1
   116    58    56   ar
   117    34    35    1
   118    55    54   ar
   119    65    67    1
   120    36    35   ar
   121    36    38   ar
   122    35    37   ar
   123    14    13    2
   124    50    49    1
   125    50    53    1
   126    56    54   ar
   127    54    53    1
   128    38    40   ar
   129    37    39   ar
   130    16    17    1
   131    16    15    1
   132    40    39   ar
   133    12    13    1
   134    12    15    1
   135    12    11    1
