@<TRIPOS>MOLECULE
tmp/2ew1A00.pdb
 166 160 0 0 0
SMALL
GASTEIGER

@<TRIPOS>ATOM
      1  N         -9.8400   -1.2800   -6.8610 N.3    14  ALA14      -0.1231
      2  CA        -8.7690   -2.2220   -7.1130 C.3    14  ALA14       0.1694
      3  C         -7.4440   -1.5400   -6.7840 C.2    14  ALA14       0.2593
      4  O         -7.2710   -0.3620   -7.0800 O.2    14  ALA14      -0.2718
      5  CB        -8.7810   -2.6590   -8.6510 C.3    14  ALA14       0.0304
      6  N         -6.5090   -2.2680   -6.1750 N.am   15  GLY15      -0.1942
      7  CA        -5.1410   -1.7720   -5.9380 C.3    15  GLY15       0.2014
      8  C         -4.9360   -0.9500   -4.6850 C.2    15  GLY15       0.2639
      9  O         -3.8420   -0.4660   -4.4440 O.2    15  GLY15      -0.2714
     10  N         -5.9670   -0.7480   -3.8740 N.am   16  VAL16      -0.1963
     11  CA        -5.8290    0.1400   -2.7130 C.3    16  VAL16       0.1727
     12  C         -5.1590   -0.4740   -1.5080 C.2    16  VAL16       0.2617
     13  O         -4.7880    0.2540   -0.5890 O.2    16  VAL16      -0.2715
     14  CB        -7.1750    0.8420   -2.2650 C.3    16  VAL16       0.0290
     15  CG1       -7.7530    1.6850   -3.4620 C.3    16  VAL16       0.0023
     16  CG2       -8.1870   -0.1470   -1.7050 C.3    16  VAL16       0.0023
     17  N         -5.0230   -1.8060   -1.5390 N.am   17  GLY17      -0.1940
     18  CA        -4.4230   -2.6420   -0.4750 C.3    17  GLY17       0.2014
     19  C         -5.3430   -3.3340    0.5070 C.2    17  GLY17       0.2639
     20  O         -4.9250   -3.6070    1.6090 O.2    17  GLY17      -0.2714
     21  N         -6.6130   -3.5650    0.1390 N.am   18  LYS18      -0.1963
     22  CA        -7.5440   -4.3230    0.9580 C.3    18  LYS18       0.1728
     23  C         -7.0320   -5.7080    1.3710 C.2    18  LYS18       0.2617
     24  O         -7.0770   -6.0910    2.5780 O.2    18  LYS18      -0.2715
     25  CB        -8.9010   -4.4690    0.2300 C.3    18  LYS18       0.0311
     26  CG        -9.5980   -3.1380   -0.1830 C.3    18  LYS18       0.0038
     27  CD       -11.0060   -3.3880   -0.8260 C.3    18  LYS18       0.0206
     28  CE       -10.9720   -4.1230   -2.1170 C.3    18  LYS18       0.1093
     29  NZ        -9.9450   -3.4920   -3.0380 N.3    18  LYS18      -0.1314
     30  N         -6.5340   -6.4610    0.3980 N.am   19  THR19      -0.1937
     31  CA        -5.8900   -7.7760    0.6710 C.3    19  THR19       0.2028
     32  C         -4.6800   -7.7420    1.6020 C.2    19  THR19       0.2642
     33  O         -4.6310   -8.4970    2.6310 O.2    19  THR19      -0.2714
     34  CB        -5.6070   -8.5160   -0.6470 C.3    19  THR19       0.1808
     35  OG1       -6.8890   -8.7440   -1.2430 O.3    19  THR19      -0.2208
     36  CG2       -4.9410   -9.8570   -0.4010 C.3    19  THR19       0.0379
     37  N         -3.7100   -6.8730    1.2970 N.am   20  CYS20      -0.1967
     38  CA        -2.5320   -6.7660    2.1800 C.3    20  CYS20       0.1712
     39  C         -2.9360   -6.3760    3.5930 C.2    20  CYS20       0.2296
     40  O         -2.3850   -6.9040    4.5420 O.2    20  CYS20      -0.2864
     41  CB        -1.4820   -5.8030    1.6370 C.3    20  CYS20       0.0983
     42  SG        -0.8030   -6.3700    0.0560 S.3    20  CYS20      -0.0798
     43  N          2.7620   -8.8580    5.9750 N.3    30  PHE30      -0.1228
     44  CA         2.4530   -8.2680    4.7010 C.3    30  PHE30       0.1721
     45  C          2.7380   -9.2620    3.5640 C.2    30  PHE30       0.2437
     46  O          3.8810   -9.7510    3.4360 O.2    30  PHE30      -0.2733
     47  CB         3.2510   -6.9730    4.5200 C.3    30  PHE30       0.0547
     48  CG         3.0600   -6.2860    3.1850 C.ar   30  PHE30      -0.0202
     49  CD1        1.9640   -5.4430    2.9800 C.ar   30  PHE30      -0.0042
     50  CD2        4.0290   -6.3910    2.1810 C.ar   30  PHE30      -0.0042
     51  CE1        1.7900   -4.7520    1.8340 C.ar   30  PHE30      -0.0003
     52  CE2        3.8550   -5.7180    0.9790 C.ar   30  PHE30      -0.0003
     53  CZ         2.6820   -4.8740    0.8190 C.ar   30  PHE30      -0.0000
     54  N          1.7070   -9.5650    2.7240 N.am   31  PRO31      -0.2729
     55  CA         1.9620  -10.6190    1.7350 C.3    31  PRO31       0.1401
     56  C          2.7850  -10.0480    0.5720 C.2    31  PRO31       0.2269
     57  O          2.3770   -9.0470   -0.0170 O.2    31  PRO31      -0.2865
     58  CB         0.5520  -11.0490    1.2910 C.3    31  PRO31       0.0296
     59  CG        -0.3430   -9.7940    1.5680 C.3    31  PRO31       0.0237
     60  CD         0.3220   -9.0180    2.6520 C.3    31  PRO31       0.0939
     61  N          1.5930   -9.7220   -3.8330 N.3    34  GLN34      -0.1231
     62  CA         0.1500   -9.8340   -3.8130 C.3    34  GLN34       0.1698
     63  C         -0.4150   -9.4640   -5.1870 C.2    34  GLN34       0.2593
     64  O         -0.0440   -8.4340   -5.7540 O.2    34  GLN34      -0.2718
     65  CB        -0.4270   -8.9720   -2.6830 C.3    34  GLN34       0.0381
     66  CG        -1.9770   -9.2040   -2.4700 C.3    34  GLN34       0.0905
     67  CD        -2.4200  -10.6680   -2.3100 C.2    34  GLN34       0.2608
     68  OE1       -3.1640  -11.2040   -3.1470 O.2    34  GLN34      -0.2717
     69  NE2       -1.9960  -11.3110   -1.2340 N.am   34  GLN34      -0.0878
     70  N         -1.2570  -10.3270   -5.7350 N.am   35  GLY35      -0.1942
     71  CA        -2.0150  -10.0540   -6.9690 C.3    35  GLY35       0.2014
     72  C         -3.4760   -9.6980   -6.6930 C.2    35  GLY35       0.2639
     73  O         -3.9910   -9.9270   -5.5610 O.2    35  GLY35      -0.2714
     74  N         -4.1360   -9.1540   -7.7260 N.am   36  ALA36      -0.1963
     75  CA        -5.5510   -8.7440   -7.6590 C.3    36  ALA36       0.1728
     76  C         -6.4580   -9.8600   -7.1690 C.2    36  ALA36       0.2616
     77  O         -6.2700  -11.0090   -7.5720 O.2    36  ALA36      -0.2715
     78  CB        -6.0170   -8.2800   -9.0380 C.3    36  ALA36       0.0334
     79  N         -7.4250   -9.5270   -6.3080 N.am   37  THR37      -0.1951
     80  CA        -8.4260  -10.4890   -5.8340 C.3    37  THR37       0.1897
     81  C         -9.4060  -10.8670   -6.9530 C.2    37  THR37       0.2313
     82  O         -9.8670  -10.0310   -7.7030 O.2    37  THR37      -0.2863
     83  CB        -9.1800  -10.0200   -4.5310 C.3    37  THR37       0.1794
     84  OG1       -8.2020   -9.6600   -3.5480 O.3    37  THR37      -0.2208
     85  CG2      -10.0400  -11.1080   -3.9700 C.3    37  THR37       0.0378
     86  N        -12.9550  -10.3640    1.8240 N.3    60  ASP60      -0.1225
     87  CA       -12.0400   -9.4790    1.1520 C.3    60  ASP60       0.1805
     88  C        -12.4450   -9.4990   -0.2970 C.2    60  ASP60       0.2598
     89  O        -12.2430  -10.5010   -0.9890 O.2    60  ASP60      -0.2718
     90  CB       -10.6390  -10.0430    1.3370 C.3    60  ASP60       0.1424
     91  CG        -9.6130   -9.3110    0.5380 C.2    60  ASP60       0.3668
     92  OD1       -9.8210   -8.0820    0.3240 O.co2  60  ASP60      -0.2456
     93  OD2       -8.6070   -9.9740    0.1580 O.co2  60  ASP60      -0.2456
     94  N        -13.0930   -8.4210   -0.7290 N.am   61  THR61      -0.1953
     95  CA       -13.6770   -8.3510   -2.0760 C.3    61  THR61       0.1897
     96  C        -12.7730   -7.8390   -3.1820 C.2    61  THR61       0.2313
     97  O        -11.9190   -7.0180   -2.9380 O.2    61  THR61      -0.2863
     98  CB       -14.9280   -7.4660   -2.0730 C.3    61  THR61       0.1794
     99  OG1      -14.5520   -6.0870   -1.8740 O.3    61  THR61      -0.2208
    100  CG2      -15.9290   -7.9310   -0.9590 C.3    61  THR61       0.0378
    101  N        -11.6090   -5.4720   -5.9890 N.3    63  GLY63      -0.1210
    102  CA       -11.7750   -4.1390   -6.5450 C.3    63  GLY63       0.1956
    103  C        -12.2360   -4.0970   -8.0140 C.2    63  GLY63       0.2611
    104  O        -13.1150   -3.2810   -8.3820 O.2    63  GLY63      -0.2717
    105  N        -11.6650   -4.9560   -8.8610 N.am   64  GLN64      -0.1979
    106  CA       -11.9130   -4.8600  -10.3110 C.3    64  GLN64       0.1601
    107  C        -13.4220   -4.7180  -10.6600 C.2    64  GLN64       0.2287
    108  O        -14.2270   -5.5480  -10.2350 O.2    64  GLN64      -0.2864
    109  CB       -11.2820   -6.0570  -11.0260 C.3    64  GLN64       0.0394
    110  CG        -9.7600   -5.9040  -11.2710 C.3    64  GLN64       0.0908
    111  CD        -8.9870   -7.2390  -11.3890 C.2    64  GLN64       0.2608
    112  OE1       -9.4570   -8.3010  -10.9530 O.2    64  GLN64      -0.2717
    113  NE2       -7.7740   -7.1710  -11.9580 N.am   64  GLN64      -0.0878
    114  N         -5.2360    3.9690    3.1870 N.3   118  ASN118     -0.1225
    115  CA        -4.0830    3.0590    3.2010 C.3   118  ASN118      0.1785
    116  C         -2.8290    3.5890    2.4790 C.2   118  ASN118      0.2597
    117  O         -2.9070    4.5300    1.6720 O.2   118  ASN118     -0.2718
    118  CB        -4.4370    1.6240    2.7130 C.3   118  ASN118      0.1169
    119  CG        -3.3870    0.5740    3.0770 C.2   118  ASN118      0.2627
    120  OD1       -2.9310    0.4170    4.2620 O.2   118  ASN118     -0.2716
    121  ND2       -3.0160   -0.2060    2.0610 N.am  118  ASN118     -0.0877
    122  N         -1.6970    2.9770    2.8530 N.am  119  LYS119     -0.1980
    123  CA        -0.3300    3.2430    2.3350 C.3   119  LYS119      0.1596
    124  C          0.2770    4.5450    2.9210 C.2   119  LYS119      0.2287
    125  O          0.9850    5.2660    2.1940 O.2   119  LYS119     -0.2864
    126  CB        -0.2750    3.2320    0.8040 C.3   119  LYS119      0.0298
    127  CG        -1.0640    2.0540    0.1600 C.3   119  LYS119      0.0038
    128  CD        -0.6100    1.9410   -1.2990 C.3   119  LYS119      0.0206
    129  CE        -1.5000    0.9640   -1.9980 C.3   119  LYS119      0.1093
    130  NZ        -1.1900    0.8510   -3.4890 N.3   119  LYS119     -0.1314
    131  N          2.8760    4.7800    4.7110 N.3   121  ASP121     -0.1225
    132  CA         4.3390    4.6930    4.5840 C.3   121  ASP121      0.1805
    133  C          4.7850    5.5120    3.3280 C.2   121  ASP121      0.2597
    134  O          5.9490    5.8710    3.1790 O.2   121  ASP121     -0.2718
    135  CB         4.7650    3.2010    4.4460 C.3   121  ASP121      0.1424
    136  CG         4.0340    2.4820    3.3060 C.2   121  ASP121      0.3668
    137  OD1        4.6550    2.2120    2.2530 O.co2 121  ASP121     -0.2456
    138  OD2        2.7970    2.2270    3.4320 O.co2 121  ASP121     -0.2456
    139  N          3.8470    5.7820    2.4130 N.am  122  LEU122     -0.1979
    140  CA         4.0950    6.6000    1.2060 C.3   122  LEU122      0.1596
    141  C          3.4680    7.9890    1.3060 C.2   122  LEU122      0.2287
    142  O          3.1830    8.5870    0.2930 O.2   122  LEU122     -0.2864
    143  CB         3.5250    5.9210   -0.0300 C.3   122  LEU122      0.0297
    144  CG         3.7920    4.4430   -0.3300 C.3   122  LEU122      0.0022
    145  CD1        3.2040    4.1060   -1.6880 C.3   122  LEU122      0.0001
    146  CD2        5.3100    4.1930   -0.3990 C.3   122  LEU122      0.0001
    147  N         -0.9990    1.5670    7.2750 N.3   148  SER148     -0.1202
    148  CA        -0.0130    0.9130    6.3840 C.3   148  SER148      0.2020
    149  C          0.0190   -0.6070    6.6170 C.2   148  SER148      0.2619
    150  O          0.5850   -1.1160    7.6020 O.2   148  SER148     -0.2717
    151  CB         1.4440    1.4240    6.6160 C.3   148  SER148      0.2103
    152  OG         2.3450    0.7960    5.6820 O.3   148  SER148     -0.2182
    153  N         -0.5580   -1.3250    5.6870 N.am  149  ALA149     -0.1965
    154  CA        -0.4540   -2.8130    5.6510 C.3   149  ALA149      0.1728
    155  C          1.0520   -3.2030    5.6000 C.2   149  ALA149      0.2616
    156  O          1.4910   -4.1950    6.2070 O.2   149  ALA149     -0.2715
    157  CB        -1.1570   -3.2980    4.3600 C.3   149  ALA149      0.0334
    158  N          1.8210   -2.3960    4.8600 N.am  150  LYS150     -0.1977
    159  CA         3.2180   -2.6710    4.5590 C.3   150  LYS150      0.1596
    160  C          4.0380   -2.5920    5.8140 C.2   150  LYS150      0.2287
    161  O          4.6920   -3.5500    6.1850 O.2   150  LYS150     -0.2864
    162  CB         3.7470   -1.7280    3.4940 C.3   150  LYS150      0.0298
    163  CG         4.6600   -2.3890    2.5700 C.3   150  LYS150      0.0038
    164  CD         6.0890   -2.0790    2.9370 C.3   150  LYS150      0.0206
    165  CE         6.7040   -1.2200    1.8610 C.3   150  LYS150      0.1093
    166  NZ         6.8280   -2.0100    0.5870 N.3   150  LYS150     -0.1314
@<TRIPOS>BOND
     1   113   111   am
     2   111   110    1
     3   111   112    2
     4   110   109    1
     5   109   106    1
     6   107   106    1
     7   107   108    2
     8   106   105    1
     9    78    75    1
    10   105   103   am
    11     5     2    1
    12   104   103    2
    13   103   102    1
    14    74    75    1
    15    74    72   am
    16    82    81    2
    17    75    76    1
    18    77    76    2
    19    76    79   am
    20     2     1    1
    21     2     3    1
    22     4     3    2
    23    71    72    1
    24    71    70    1
    25    81    80    1
    26     3     6   am
    27    72    73    2
    28   102   101    1
    29    79    80    1
    30     6     7    1
    31     7     8    1
    32    80    83    1
    33    64    63    2
    34    70    63   am
    35    63    62    1
    36     8     9    2
    37     8    10   am
    38    83    85    1
    39    83    84    1
    40    10    11    1
    41    61    62    1
    42    62    65    1
    43   130   129    1
    44    15    14    1
    45    96    97    2
    46    96    95    1
    47    68    67    2
    48    29    28    1
    49    11    14    1
    50    11    12    1
    51    65    66    1
    52    66    67    1
    53    67    69   am
    54    14    16    1
    55    28    27    1
    56    95    98    1
    57    95    94    1
    58    98    99    1
    59    98   100    1
    60   129   128    1
    61   145   144    1
    62    17    12   am
    63    17    18    1
    64    12    13    2
    65   128   127    1
    66    35    34    1
    67    89    88    2
    68    27    26    1
    69    94    88   am
    70    34    36    1
    71    34    31    1
    72    18    19    1
    73   146   144    1
    74   144   143    1
    75    88    87    1
    76    26    25    1
    77   143   140    1
    78    57    56    2
    79    42    41    1
    80    21    19   am
    81    21    22    1
    82    93    91   ar
    83   127   126    1
    84    25    22    1
    85   142   141    2
    86    92    91   ar
    87    30    31    1
    88    30    23   am
    89    19    20    2
    90    91    90    1
    91    56    55    1
    92   166   165    1
    93    31    32    1
    94   126   123    1
    95    53    52   ar
    96    53    51   ar
    97    22    23    1
    98    52    50   ar
    99    87    90    1
   100    87    86    1
   101   140   141    1
   102   140   139    1
   103    58    59    1
   104    58    55    1
   105    37    32   am
   106    37    38    1
   107    23    24    2
   108    59    60    1
   109    32    33    2
   110    41    38    1
   111   117   116    2
   112    55    54    1
   113    51    49   ar
   114   165   164    1
   115   121   119   am
   116    38    39    1
   117    50    48   ar
   118   125   124    2
   119   137   136   ar
   120   123   122    1
   121   123   124    1
   122   139   133   am
   123   116   122   am
   124   116   115    1
   125   163   164    1
   126   163   162    1
   127    60    54    1
   128   118   119    1
   129   118   115    1
   130    54    45   am
   131    49    48   ar
   132   119   120    2
   133   134   133    2
   134    48    47    1
   135   114   115    1
   136   136   138   ar
   137   136   135    1
   138   133   132    1
   139    46    45    2
   140   162   159    1
   141    45    44    1
   142    39    40    2
   143   157   154    1
   144   135   132    1
   145    47    44    1
   146   159   158    1
   147   159   160    1
   148   132   131    1
   149    44    43    1
   150   158   155   am
   151   155   154    1
   152   155   156    2
   153   154   153    1
   154   152   151    1
   155   153   149   am
   156   160   161    2
   157   148   151    1
   158   148   149    1
   159   148   147    1
   160   149   150    2
