@<TRIPOS>MOLECULE
tmp/2ew5A00.pdb
 169 168 0 0 0
SMALL
GASTEIGER

@<TRIPOS>ATOM
      1  N        -85.9540  -54.3680   50.4570 N.3     7  HIS7       -0.1241
      2  CA       -84.5410  -54.2410   50.1070 C.3     7  HIS7        0.1621
      3  C        -83.8830  -52.9590   50.6140 C.2     7  HIS7        0.2264
      4  O        -84.5390  -51.9300   50.7910 O.2     7  HIS7       -0.2867
      5  CB       -84.3600  -54.2680   48.5820 C.3     7  HIS7        0.0745
      6  CG       -84.9810  -55.4490   47.9090 C.ar    7  HIS7        0.0817
      7  ND1      -84.5570  -56.7410   48.1270 N.ar    7  HIS7       -0.2268
      8  CD2      -85.9930  -55.5320   47.0120 C.ar    7  HIS7        0.1154
      9  CE1      -85.2800  -57.5700   47.3940 C.ar    7  HIS7        0.1986
     10  NE2      -86.1580  -56.8620   46.7080 N.ar    7  HIS7       -0.2212
     11  N        -87.3160  -67.3020   47.3020 N.3    41  SER41      -0.1202
     12  CA       -86.1780  -66.4610   46.9370 C.3    41  SER41       0.2020
     13  C        -84.8400  -67.1450   47.2200 C.2    41  SER41       0.2619
     14  O        -83.7830  -66.5220   47.1700 O.2    41  SER41      -0.2717
     15  CB       -86.2510  -65.1150   47.6530 C.3    41  SER41       0.2103
     16  OG       -87.2410  -64.2950   47.0520 O.3    41  SER41      -0.2182
     17  N        -84.9040  -68.4360   47.5190 N.am   42  GLU42      -0.1965
     18  CA       -83.7160  -69.2370   47.7810 C.3    42  GLU42       0.1733
     19  C        -82.7790  -68.6740   48.8480 C.2    42  GLU42       0.2617
     20  O        -81.5740  -68.5270   48.6280 O.2    42  GLU42      -0.2715
     21  CB       -82.9680  -69.4600   46.4660 C.3    42  GLU42       0.0429
     22  CG       -83.8080  -70.2230   45.4390 C.3    42  GLU42       0.1163
     23  CD       -83.1890  -70.2560   44.0570 C.2    42  GLU42       0.3649
     24  OE1      -82.0010  -70.6260   43.9410 O.co2  42  GLU42      -0.2457
     25  OE2      -83.8960  -69.9210   43.0830 O.co2  42  GLU42      -0.2457
     26  N        -83.3470  -68.3570   50.0060 N.am   43  GLY43      -0.1940
     27  CA       -82.5500  -67.8490   51.1010 C.3    43  GLY43       0.2014
     28  C        -82.4650  -68.9280   52.1660 C.2    43  GLY43       0.2639
     29  O        -83.1420  -69.9520   52.0750 O.2    43  GLY43      -0.2714
     30  N        -81.6250  -68.7230   53.1710 N.am   44  ILE44      -0.1963
     31  CA       -81.5100  -69.7070   54.2260 C.3    44  ILE44       0.1727
     32  C        -81.8650  -69.0840   55.5730 C.2    44  ILE44       0.2616
     33  O        -81.9290  -69.7720   56.5880 O.2    44  ILE44      -0.2715
     34  CB       -80.0970  -70.3270   54.2580 C.3    44  ILE44       0.0290
     35  CG1      -79.0530  -69.2810   54.6220 C.3    44  ILE44       0.0022
     36  CG2      -79.7650  -70.9130   52.8940 C.3    44  ILE44       0.0023
     37  CD1      -77.6380  -69.8490   54.6320 C.3    44  ILE44       0.0001
     38  N        -82.1110  -67.7770   55.5580 N.am   45  GLY45      -0.1955
     39  CA       -82.4830  -67.0510   56.7600 C.3    45  GLY45       0.1869
     40  C        -83.3960  -65.8840   56.4010 C.2    45  GLY45       0.2309
     41  O        -83.2760  -65.3110   55.3200 O.2    45  GLY45      -0.2863
     42  N        -66.7690  -64.3530   58.1600 N.3    91  TYR91      -0.1227
     43  CA       -67.6350  -65.1870   57.3430 C.3    91  TYR91       0.1736
     44  C        -68.2150  -64.3350   56.2280 C.2    91  TYR91       0.2595
     45  O        -68.7110  -63.2380   56.4760 O.2    91  TYR91      -0.2718
     46  CB       -68.7750  -65.7710   58.1770 C.3    91  TYR91       0.0548
     47  CG       -69.3890  -66.9910   57.5450 C.ar   91  TYR91      -0.0200
     48  CD1      -68.8610  -68.2580   57.7800 C.ar   91  TYR91      -0.0009
     49  CD2      -70.4570  -66.8770   56.6630 C.ar   91  TYR91      -0.0009
     50  CE1      -69.3840  -69.3840   57.1490 C.ar   91  TYR91       0.0417
     51  CE2      -70.9850  -67.9910   56.0250 C.ar   91  TYR91       0.0417
     52  CZ       -70.4440  -69.2400   56.2710 C.ar   91  TYR91       0.1957
     53  OH       -70.9640  -70.3410   55.6350 O.3    91  TYR91      -0.2866
     54  N        -68.1390  -64.8250   54.9970 N.am   92  LYS92      -0.1966
     55  CA       -68.6830  -64.0780   53.8710 C.3    92  LYS92       0.1728
     56  C        -70.1950  -64.2210   53.9480 C.2    92  LYS92       0.2616
     57  O        -70.7260  -65.3280   53.8930 O.2    92  LYS92      -0.2715
     58  CB       -68.1550  -64.6370   52.5490 C.3    92  LYS92       0.0311
     59  CG       -68.6530  -63.8910   51.3200 C.3    92  LYS92       0.0038
     60  CD       -67.9570  -64.3830   50.0610 C.3    92  LYS92       0.0206
     61  CE       -66.4970  -63.9370   50.0200 C.3    92  LYS92       0.1093
     62  NZ       -66.3540  -62.4950   49.6670 N.3    92  LYS92      -0.1314
     63  N        -70.8860  -63.1000   54.0740 N.am   93  GLU93      -0.1963
     64  CA       -72.3340  -63.1270   54.2010 C.3    93  GLU93       0.1733
     65  C        -73.1000  -62.5470   53.0220 C.2    93  GLU93       0.2617
     66  O        -72.5680  -61.7580   52.2440 O.2    93  GLU93      -0.2715
     67  CB       -72.7420  -62.3870   55.4770 C.3    93  GLU93       0.0429
     68  CG       -72.2140  -63.0220   56.7540 C.3    93  GLU93       0.1163
     69  CD       -72.7330  -62.3440   58.0120 C.2    93  GLU93       0.3649
     70  OE1      -73.8050  -61.7070   57.9560 O.co2  93  GLU93      -0.2457
     71  OE2      -72.0700  -62.4620   59.0620 O.co2  93  GLU93      -0.2457
     72  N        -74.3610  -62.9620   52.9160 N.am   94  GLY94      -0.1940
     73  CA       -75.2590  -62.4900   51.8780 C.3    94  GLY94       0.2014
     74  C        -76.5850  -62.2170   52.5700 C.2    94  GLY94       0.2639
     75  O        -76.7670  -62.6370   53.7050 O.2    94  GLY94      -0.2714
     76  N        -77.5130  -61.5420   51.9030 N.am   95  CYS95      -0.1953
     77  CA       -78.8030  -61.2100   52.5160 C.3    95  CYS95       0.1843
     78  C        -79.8770  -60.9530   51.4540 C.2    95  CYS95       0.2625
     79  O        -79.6120  -60.2950   50.4420 O.2    95  CYS95      -0.2714
     80  CB       -78.6380  -59.9600   53.3920 C.3    95  CYS95       0.0997
     81  SG       -80.1160  -59.4240   54.3070 S.3    95  CYS95      -0.0797
     82  N        -81.0810  -61.4800   51.6880 N.am   96  LEU96      -0.1977
     83  CA       -82.2010  -61.2990   50.7670 C.3    96  LEU96       0.1596
     84  C        -82.5780  -59.8270   50.6260 C.2    96  LEU96       0.2287
     85  O        -83.1850  -59.4250   49.6270 O.2    96  LEU96      -0.2864
     86  CB       -83.4300  -62.0860   51.2470 C.3    96  LEU96       0.0297
     87  CG       -83.3930  -63.6000   51.0410 C.3    96  LEU96       0.0022
     88  CD1      -84.5540  -64.2740   51.7380 C.3    96  LEU96       0.0001
     89  CD2      -83.4520  -63.8770   49.5690 C.3    96  LEU96       0.0001
     90  N        -80.3540  -57.4700   50.5340 N.3    98  VAL98      -0.1231
     91  CA       -79.2160  -56.8210   49.8860 C.3    98  VAL98       0.1678
     92  C        -78.7660  -57.7990   48.8150 C.2    98  VAL98       0.2434
     93  O        -77.6160  -58.2400   48.7920 O.2    98  VAL98      -0.2733
     94  CB       -78.0560  -56.5790   50.8700 C.3    98  VAL98       0.0265
     95  CG1      -77.0160  -55.6510   50.2290 C.3    98  VAL98       0.0020
     96  CG2      -78.5850  -55.9820   52.1710 C.3    98  VAL98       0.0020
     97  N        -79.6820  -58.1580   47.9060 N.am   99  PRO99      -0.2718
     98  CA       -79.3640  -59.1030   46.8350 C.3    99  PRO99       0.1535
     99  C        -78.1990  -58.6860   45.9540 C.2    99  PRO99       0.2599
    100  O        -78.0170  -57.5070   45.6550 O.2    99  PRO99      -0.2715
    101  CB       -80.6820  -59.2020   46.0640 C.3    99  PRO99       0.0310
    102  CG       -81.2540  -57.8410   46.2130 C.3    99  PRO99       0.0237
    103  CD       -81.0010  -57.5360   47.6790 C.3    99  PRO99       0.0939
    104  N        -77.3990  -59.6680   45.5600 N.am  100  GLY100     -0.1941
    105  CA       -76.2670  -59.3960   44.6950 C.3   100  GLY100      0.2014
    106  C        -74.9770  -58.9800   45.3760 C.2   100  GLY100      0.2639
    107  O        -73.9610  -58.8210   44.7040 O.2   100  GLY100     -0.2714
    108  N        -74.9990  -58.7950   46.6920 N.am  101  PHE101     -0.1959
    109  CA       -73.7830  -58.4000   47.3940 C.3   101  PHE101      0.1771
    110  C        -73.3900  -59.3960   48.4810 C.2   101  PHE101      0.2619
    111  O        -74.2220  -59.8310   49.2760 O.2   101  PHE101     -0.2715
    112  CB       -73.9390  -57.0110   48.0170 C.3   101  PHE101      0.0574
    113  CG       -72.6720  -56.4900   48.6430 C.ar  101  PHE101     -0.0200
    114  CD1      -71.5770  -56.1520   47.8490 C.ar  101  PHE101     -0.0042
    115  CD2      -72.5580  -56.3700   50.0270 C.ar  101  PHE101     -0.0042
    116  CE1      -70.3850  -55.7030   48.4200 C.ar  101  PHE101     -0.0003
    117  CE2      -71.3710  -55.9220   50.6140 C.ar  101  PHE101     -0.0003
    118  CZ       -70.2800  -55.5880   49.8070 C.ar  101  PHE101     -0.0000
    119  N        -72.1130  -59.7560   48.5080 N.am  102  TYR102     -0.1974
    120  CA       -71.6040  -60.6890   49.5000 C.3   102  TYR102      0.1639
    121  C        -70.2690  -60.1710   50.0260 C.2   102  TYR102      0.2290
    122  O        -69.3950  -59.7740   49.2510 O.2   102  TYR102     -0.2864
    123  CB       -71.4210  -62.0750   48.8830 C.3   102  TYR102      0.0560
    124  CG       -72.5980  -62.5210   48.0510 C.ar  102  TYR102     -0.0198
    125  CD1      -72.7230  -62.1240   46.7180 C.ar  102  TYR102     -0.0009
    126  CD2      -73.6090  -63.3110   48.6030 C.ar  102  TYR102     -0.0009
    127  CE1      -73.8230  -62.5040   45.9580 C.ar  102  TYR102      0.0417
    128  CE2      -74.7120  -63.6950   47.8520 C.ar  102  TYR102      0.0417
    129  CZ       -74.8130  -63.2880   46.5310 C.ar  102  TYR102      0.1957
    130  OH       -75.9030  -63.6650   45.7810 O.3   102  TYR102     -0.2866
    131  N        -71.5020  -71.8190   60.6890 N.3   130  LEU130     -0.1245
    132  CA       -72.6300  -71.3300   59.9020 C.3   130  LEU130      0.1561
    133  C        -73.9030  -71.0040   60.6920 C.2   130  LEU130      0.2260
    134  O        -74.4540  -69.9090   60.5500 O.2   130  LEU130     -0.2867
    135  CB       -72.9580  -72.3270   58.7840 C.3   130  LEU130      0.0270
    136  CG       -73.9900  -71.8630   57.7470 C.3   130  LEU130      0.0019
    137  CD1      -73.5700  -70.5100   57.1830 C.3   130  LEU130      0.0001
    138  CD2      -74.1140  -72.8960   56.6200 C.3   130  LEU130      0.0001
    139  N        -73.5140  -68.0270   62.7560 N.3   133  VAL133     -0.1231
    140  CA       -73.4420  -66.8320   61.9240 C.3   133  VAL133      0.1692
    141  C        -74.8510  -66.3920   61.5140 C.2   133  VAL133      0.2591
    142  O        -75.1840  -65.2130   61.5820 O.2   133  VAL133     -0.2718
    143  CB       -72.6030  -67.0830   60.6480 C.3   133  VAL133      0.0266
    144  CG1      -72.6510  -65.8640   59.7500 C.3   133  VAL133      0.0020
    145  CG2      -71.1610  -67.3910   61.0210 C.3   133  VAL133      0.0020
    146  N        -75.6750  -67.3470   61.0970 N.am  134  ALA134     -0.1980
    147  CA       -77.0350  -67.0420   60.6750 C.3   134  ALA134      0.1597
    148  C        -77.8100  -66.4410   61.8360 C.2   134  ALA134      0.2287
    149  O        -78.5420  -65.4670   61.6670 O.2   134  ALA134     -0.2864
    150  CB       -77.7350  -68.3100   60.1760 C.3   134  ALA134      0.0319
    151  N        -76.6330  -62.8790   62.3880 N.3   137  HIS137     -0.1226
    152  CA       -77.0790  -62.0700   61.2600 C.3   137  HIS137      0.1752
    153  C        -78.5680  -61.7760   61.4050 C.2   137  HIS137      0.2595
    154  O        -78.9790  -60.6210   61.3970 O.2   137  HIS137     -0.2718
    155  CB       -76.8120  -62.8180   59.9510 C.3   137  HIS137      0.0759
    156  CG       -77.2840  -62.1060   58.7200 C.ar  137  HIS137      0.0818
    157  ND1      -76.4170  -61.6370   57.7570 N.ar  137  HIS137     -0.2268
    158  CD2      -78.5320  -61.8620   58.2510 C.ar  137  HIS137      0.1154
    159  CE1      -77.1080  -61.1400   56.7470 C.ar  137  HIS137      0.1986
    160  NE2      -78.3930  -61.2650   57.0210 N.ar  137  HIS137     -0.2212
    161  N        -79.3780  -62.8180   61.5650 N.am  138  GLU138     -0.1979
    162  CA       -80.8140  -62.6080   61.6850 C.3   138  GLU138      0.1602
    163  C        -81.1870  -61.7370   62.8810 C.2   138  GLU138      0.2287
    164  O        -82.0150  -60.8330   62.7530 O.2   138  GLU138     -0.2864
    165  CB       -81.5550  -63.9450   61.7500 C.3   138  GLU138      0.0415
    166  CG       -81.4990  -64.7500   60.4520 C.3   138  GLU138      0.1163
    167  CD       -81.8180  -63.9160   59.2180 C.2   138  GLU138      0.3649
    168  OE1      -82.7000  -63.0360   59.3010 O.co2 138  GLU138     -0.2457
    169  OE2      -81.1930  -64.1520   58.1570 O.co2 138  GLU138     -0.2457
@<TRIPOS>BOND
     1    25    23   ar
     2    24    23   ar
     3    23    22    1
     4   105   106    1
     5   105   104    1
     6   107   106    2
     7   106   108   am
     8    22    21    1
     9   104    99   am
    10   100    99    2
    11   130   129    1
    12    99    98    1
    13   127   129   ar
    14   127   125   ar
    15   101   102    1
    16   101    98    1
    17   102   103    1
    18    21    18    1
    19   129   128   ar
    20   108   109    1
    21    10     8   ar
    22    10     9   ar
    23   125   124   ar
    24    98    97    1
    25    12    13    1
    26    12    11    1
    27    12    15    1
    28     8     6   ar
    29    16    15    1
    30    14    13    2
    31    13    17   am
    32   109   112    1
    33   109   110    1
    34     9     7   ar
    35    17    18    1
    36   103    97    1
    37    18    19    1
    38   114   116   ar
    39   114   113   ar
    40   128   126   ar
    41    97    92   am
    42     6     7   ar
    43     6     5    1
    44   112   113    1
    45   124   126   ar
    46   124   123    1
    47   116   118   ar
    48   110   119   am
    49   110   111    2
    50   119   120    1
    51     5     2    1
    52    20    19    2
    53   113   115   ar
    54    93    92    2
    55    92    91    1
    56    19    26   am
    57   123   120    1
    58   122   121    2
    59   120   121    1
    60    89    87    1
    61    85    84    2
    62    62    61    1
    63   118   117   ar
    64    91    90    1
    65    91    94    1
    66    26    27    1
    67    61    60    1
    68   115   117   ar
    69    60    59    1
    70     2     1    1
    71     2     3    1
    72    95    94    1
    73    79    78    2
    74     3     4    2
    75    84    83    1
    76    83    86    1
    77    83    82    1
    78    94    96    1
    79    87    86    1
    80    87    88    1
    81    27    28    1
    82    59    58    1
    83    78    82   am
    84    78    77    1
    85    73    74    1
    86    73    72    1
    87    76    77    1
    88    76    74   am
    89    29    28    2
    90    28    30   am
    91    66    65    2
    92    77    80    1
    93    58    55    1
    94    74    75    2
    95    36    34    1
    96    72    65   am
    97    65    64    1
    98    30    31    1
    99    80    81    1
   100    55    56    1
   101    55    54    1
   102    57    56    2
   103    56    63   am
   104    63    64    1
   105    64    67    1
   106    31    34    1
   107    31    32    1
   108    34    35    1
   109    35    37    1
   110    54    44   am
   111    41    40    2
   112    67    68    1
   113    38    32   am
   114    38    39    1
   115    32    33    2
   116    53    52    1
   117    51    52   ar
   118    51    49   ar
   119    44    45    2
   120    44    43    1
   121    52    50   ar
   122    40    39    1
   123   138   136    1
   124    49    47   ar
   125   159   160   ar
   126   159   157   ar
   127    68    69    1
   128   160   158   ar
   129    50    48   ar
   130   137   136    1
   131    43    42    1
   132    43    46    1
   133    47    48   ar
   134    47    46    1
   135   136   135    1
   136   157   156   ar
   137    70    69   ar
   138    69    71   ar
   139   169   167   ar
   140   158   156   ar
   141   156   155    1
   142   135   132    1
   143   167   168   ar
   144   167   166    1
   145   144   143    1
   146   132   131    1
   147   132   133    1
   148   155   152    1
   149   150   147    1
   150   166   165    1
   151   134   133    2
   152   143   145    1
   153   143   140    1
   154   147   146    1
   155   147   148    1
   156   146   141   am
   157   152   153    1
   158   152   151    1
   159   154   153    2
   160   153   161   am
   161   141   142    2
   162   141   140    1
   163   161   162    1
   164   149   148    2
   165   162   165    1
   166   162   163    1
   167   140   139    1
   168   164   163    2
