@<TRIPOS>MOLECULE
tmp/2ew6A00.pdb
 159 158 0 0 0
SMALL
GASTEIGER

@<TRIPOS>ATOM
      1  N        -66.3270  -93.6740   92.9550 N.3    41  SER41      -0.1202
      2  CA       -65.2030  -92.8300   92.5460 C.3    41  SER41       0.2020
      3  C        -63.8740  -93.5080   92.8420 C.2    41  SER41       0.2619
      4  O        -62.8150  -92.8840   92.7870 O.2    41  SER41      -0.2717
      5  CB       -65.2610  -91.4660   93.2370 C.3    41  SER41       0.2103
      6  OG       -66.2000  -90.6200   92.5850 O.3    41  SER41      -0.2182
      7  N        -63.9570  -94.7940   93.1690 N.am   42  GLU42      -0.1965
      8  CA       -62.7950  -95.6220   93.4600 C.3    42  GLU42       0.1733
      9  C        -61.8610  -95.1010   94.5470 C.2    42  GLU42       0.2617
     10  O        -60.6530  -94.9800   94.3410 O.2    42  GLU42      -0.2715
     11  CB       -62.0250  -95.8720   92.1660 C.3    42  GLU42       0.0429
     12  CG       -62.8540  -96.6470   91.1470 C.3    42  GLU42       0.1163
     13  CD       -62.2470  -96.6400   89.7690 C.2    42  GLU42       0.3649
     14  OE1      -61.0550  -96.9930   89.6410 O.co2  42  GLU42      -0.2457
     15  OE2      -62.9650  -96.2890   88.8090 O.co2  42  GLU42      -0.2457
     16  N        -62.4330  -94.8100   95.7110 N.am   43  GLY43      -0.1940
     17  CA       -61.6420  -94.3320   96.8270 C.3    43  GLY43       0.2014
     18  C        -61.5520  -95.4050   97.8990 C.2    43  GLY43       0.2639
     19  O        -62.3000  -96.3810   97.8720 O.2    43  GLY43      -0.2714
     20  N        -60.6220  -95.2460   98.8330 N.am   44  ILE44      -0.1963
     21  CA       -60.4760  -96.2070   99.9130 C.3    44  ILE44       0.1727
     22  C        -60.9180  -95.5630  101.2270 C.2    44  ILE44       0.2616
     23  O        -61.1490  -96.2570  102.2150 O.2    44  ILE44      -0.2715
     24  CB       -59.0140  -96.7220  100.0250 C.3    44  ILE44       0.0290
     25  CG1      -58.0550  -95.5640  100.3000 C.3    44  ILE44       0.0022
     26  CG2      -58.6130  -97.4150   98.7290 C.3    44  ILE44       0.0023
     27  CD1      -56.5920  -95.9900  100.3510 C.3    44  ILE44       0.0001
     28  N        -61.0470  -94.2350  101.2200 N.am   45  GLY45      -0.1955
     29  CA       -61.4820  -93.5100  102.4030 C.3    45  GLY45       0.1869
     30  C        -62.3830  -92.3310  102.0540 C.2    45  GLY45       0.2309
     31  O        -62.2320  -91.7170  100.9940 O.2    45  GLY45      -0.2863
     32  N        -45.6850  -90.7160  103.7810 N.3    91  TYR91      -0.1227
     33  CA       -46.5770  -91.5510  102.9890 C.3    91  TYR91       0.1736
     34  C        -47.1610  -90.7010  101.8750 C.2    91  TYR91       0.2595
     35  O        -47.6620  -89.6100  102.1370 O.2    91  TYR91      -0.2718
     36  CB       -47.7170  -92.0800  103.8660 C.3    91  TYR91       0.0548
     37  CG       -48.1770  -93.4770  103.5120 C.ar   91  TYR91      -0.0200
     38  CD1      -47.5680  -94.5910  104.0830 C.ar   91  TYR91      -0.0009
     39  CD2      -49.2150  -93.6870  102.6010 C.ar   91  TYR91      -0.0009
     40  CE1      -47.9760  -95.8850  103.7670 C.ar   91  TYR91       0.0417
     41  CE2      -49.6320  -94.9810  102.2710 C.ar   91  TYR91       0.0417
     42  CZ       -49.0070  -96.0760  102.8620 C.ar   91  TYR91       0.1957
     43  OH       -49.4110  -97.3590  102.5570 O.3    91  TYR91      -0.2866
     44  N        -47.0910  -91.1770  100.6360 N.am   92  LYS92      -0.1966
     45  CA       -47.6590  -90.4070   99.5410 C.3    92  LYS92       0.1728
     46  C        -49.1640  -90.5890   99.6210 C.2    92  LYS92       0.2616
     47  O        -49.6610  -91.7100   99.6660 O.2    92  LYS92      -0.2715
     48  CB       -47.1330  -90.8830   98.1860 C.3    92  LYS92       0.0311
     49  CG       -47.7630  -90.1400   97.0110 C.3    92  LYS92       0.0038
     50  CD       -46.9100  -90.1980   95.7510 C.3    92  LYS92       0.0206
     51  CE       -45.6160  -89.4090   95.9300 C.3    92  LYS92       0.1093
     52  NZ       -44.8270  -89.3120   94.6720 N.3    92  LYS92      -0.1314
     53  N        -49.8890  -89.4820   99.6470 N.am   93  GLU93      -0.1963
     54  CA       -51.3370  -89.5470   99.7580 C.3    93  GLU93       0.1733
     55  C        -52.1120  -88.9430   98.5950 C.2    93  GLU93       0.2617
     56  O        -51.5750  -88.1710   97.8000 O.2    93  GLU93      -0.2715
     57  CB       -51.7630  -88.8760  101.0580 C.3    93  GLU93       0.0429
     58  CG       -51.2440  -89.5790  102.2990 C.3    93  GLU93       0.1163
     59  CD       -51.7160  -88.9210  103.5780 C.2    93  GLU93       0.3649
     60  OE1      -52.7810  -88.2660  103.5530 O.co2  93  GLU93      -0.2457
     61  OE2      -51.0310  -89.0710  104.6100 O.co2  93  GLU93      -0.2457
     62  N        -53.3840  -89.3290   98.5150 N.am   94  GLY94      -0.1940
     63  CA       -54.2920  -88.8420   97.4930 C.3    94  GLY94       0.2014
     64  C        -55.5890  -88.5130   98.2110 C.2    94  GLY94       0.2639
     65  O        -55.6980  -88.7670   99.4090 O.2    94  GLY94      -0.2714
     66  N        -56.5750  -87.9710   97.5020 N.am   95  CYS95      -0.1953
     67  CA       -57.8410  -87.5950   98.1300 C.3    95  CYS95       0.1843
     68  C        -58.9220  -87.3830   97.0710 C.2    95  CYS95       0.2625
     69  O        -58.6710  -86.7370   96.0540 O.2    95  CYS95      -0.2714
     70  CB       -57.6430  -86.2940   98.9260 C.3    95  CYS95       0.0997
     71  SG       -59.0520  -85.7450   99.9410 S.3    95  CYS95      -0.0797
     72  N        -60.1170  -87.9250   97.3040 N.am   96  LEU96      -0.1977
     73  CA       -61.2190  -87.7520   96.3570 C.3    96  LEU96       0.1596
     74  C        -61.5900  -86.2740   96.2240 C.2    96  LEU96       0.2287
     75  O        -62.1660  -85.8560   95.2150 O.2    96  LEU96      -0.2864
     76  CB       -62.4520  -88.5550   96.7950 C.3    96  LEU96       0.0297
     77  CG       -62.3640  -90.0750   96.6180 C.3    96  LEU96       0.0022
     78  CD1      -63.6220  -90.7290   97.1540 C.3    96  LEU96       0.0001
     79  CD2      -62.1840  -90.4120   95.1510 C.3    96  LEU96       0.0001
     80  N        -59.3500  -83.9300   96.1830 N.3    98  VAL98      -0.1231
     81  CA       -58.2060  -83.2980   95.5260 C.3    98  VAL98       0.1678
     82  C        -57.7200  -84.2740   94.4500 C.2    98  VAL98       0.2434
     83  O        -56.5690  -84.7060   94.4550 O.2    98  VAL98      -0.2733
     84  CB       -57.0580  -83.0330   96.5310 C.3    98  VAL98       0.0265
     85  CG1      -56.0340  -82.0840   95.9180 C.3    98  VAL98       0.0020
     86  CG2      -57.6140  -82.4540   97.8290 C.3    98  VAL98       0.0020
     87  N        -58.6040  -84.6250   93.5040 N.am   99  PRO99      -0.2718
     88  CA       -58.2880  -85.5590   92.4180 C.3    99  PRO99       0.1535
     89  C        -57.1180  -85.1850   91.5040 C.2    99  PRO99       0.2599
     90  O        -56.9720  -84.0330   91.0880 O.2    99  PRO99      -0.2715
     91  CB       -59.6120  -85.6580   91.6620 C.3    99  PRO99       0.0310
     92  CG       -60.1860  -84.2950   91.8260 C.3    99  PRO99       0.0237
     93  CD       -59.9240  -84.0020   93.2870 C.3    99  PRO99       0.0939
     94  N        -56.2830  -86.1740   91.1990 N.am  100  GLY100     -0.1941
     95  CA       -55.1510  -85.9330   90.3230 C.3   100  GLY100      0.2014
     96  C        -53.8580  -85.5070   90.9960 C.2   100  GLY100      0.2639
     97  O        -52.8180  -85.4310   90.3400 O.2   100  GLY100     -0.2714
     98  N        -53.9000  -85.2250   92.2940 N.am  101  PHE101     -0.1959
     99  CA       -52.6870  -84.8190   92.9850 C.3   101  PHE101      0.1771
    100  C        -52.3100  -85.7760   94.1070 C.2   101  PHE101      0.2619
    101  O        -53.1350  -86.1150   94.9570 O.2   101  PHE101     -0.2715
    102  CB       -52.8320  -83.4100   93.5570 C.3   101  PHE101      0.0574
    103  CG       -51.5860  -82.9070   94.2350 C.ar  101  PHE101     -0.0200
    104  CD1      -50.4530  -82.5820   93.4860 C.ar  101  PHE101     -0.0042
    105  CD2      -51.5340  -82.7790   95.6240 C.ar  101  PHE101     -0.0042
    106  CE1      -49.2870  -82.1360   94.1060 C.ar  101  PHE101     -0.0003
    107  CE2      -50.3700  -82.3340   96.2590 C.ar  101  PHE101     -0.0003
    108  CZ       -49.2440  -82.0120   95.4970 C.ar  101  PHE101     -0.0000
    109  N        -51.0510  -86.2020   94.1040 N.am  102  TYR102     -0.1974
    110  CA       -50.5440  -87.1120   95.1190 C.3   102  TYR102      0.1639
    111  C        -49.2150  -86.5920   95.6540 C.2   102  TYR102      0.2290
    112  O        -48.3460  -86.1790   94.8830 O.2   102  TYR102     -0.2864
    113  CB       -50.3540  -88.5090   94.5230 C.3   102  TYR102      0.0560
    114  CG       -51.5340  -88.9750   93.6980 C.ar  102  TYR102     -0.0198
    115  CD1      -51.6390  -88.6360   92.3490 C.ar  102  TYR102     -0.0009
    116  CD2      -52.5700  -89.7100   94.2800 C.ar  102  TYR102     -0.0009
    117  CE1      -52.7480  -89.0140   91.5980 C.ar  102  TYR102      0.0417
    118  CE2      -53.6840  -90.0930   93.5390 C.ar  102  TYR102      0.0417
    119  CZ       -53.7670  -89.7390   92.2000 C.ar  102  TYR102      0.1957
    120  OH       -54.8720  -90.0940   91.4650 O.3   102  TYR102     -0.2866
    121  N        -50.7120  -98.3250  106.1580 N.3   130  LEU130     -0.1245
    122  CA       -51.8220  -97.7650  105.3940 C.3   130  LEU130      0.1561
    123  C        -53.0830  -97.4490  106.2040 C.2   130  LEU130      0.2260
    124  O        -53.6830  -96.3860  106.0320 O.2   130  LEU130     -0.2867
    125  CB       -52.1750  -98.6870  104.2190 C.3   130  LEU130      0.0270
    126  CG       -53.2150  -98.1270  103.2380 C.3   130  LEU130      0.0019
    127  CD1      -52.7560  -96.7590  102.7530 C.3   130  LEU130      0.0001
    128  CD2      -53.4100  -99.0800  102.0560 C.3   130  LEU130      0.0001
    129  N        -52.5910  -94.4120  108.3490 N.3   133  VAL133     -0.1231
    130  CA       -52.5520  -93.2200  107.5100 C.3   133  VAL133      0.1692
    131  C        -53.9680  -92.7750  107.1310 C.2   133  VAL133      0.2591
    132  O        -54.3160  -91.6000  107.2670 O.2   133  VAL133     -0.2718
    133  CB       -51.7220  -93.4860  106.2170 C.3   133  VAL133      0.0266
    134  CG1      -51.9480  -92.3850  105.2010 C.3   133  VAL133      0.0020
    135  CG2      -50.2370  -93.5730  106.5620 C.3   133  VAL133      0.0020
    136  N        -54.7820  -93.7170  106.6640 N.am  134  ALA134     -0.1980
    137  CA       -56.1510  -93.4130  106.2570 C.3   134  ALA134      0.1597
    138  C        -56.9330  -92.8180  107.4200 C.2   134  ALA134      0.2287
    139  O        -57.7000  -91.8660  107.2470 O.2   134  ALA134     -0.2864
    140  CB       -56.8430  -94.6770  105.7480 C.3   134  ALA134      0.0319
    141  N        -55.6960  -89.2700  107.9740 N.3   137  HIS137     -0.1226
    142  CA       -56.1420  -88.4650  106.8420 C.3   137  HIS137      0.1752
    143  C        -57.6320  -88.1400  106.9700 C.2   137  HIS137      0.2595
    144  O        -58.0340  -86.9780  106.9080 O.2   137  HIS137     -0.2718
    145  CB       -55.8840  -89.2390  105.5440 C.3   137  HIS137      0.0759
    146  CG       -56.3660  -88.5510  104.3060 C.ar  137  HIS137      0.0818
    147  ND1      -55.5270  -87.8450  103.4710 N.ar  137  HIS137     -0.2268
    148  CD2      -57.5900  -88.5150  103.7240 C.ar  137  HIS137      0.1154
    149  CE1      -56.2090  -87.4100  102.4260 C.ar  137  HIS137      0.1986
    150  NE2      -57.4620  -87.8050  102.5550 N.ar  137  HIS137     -0.2212
    151  N        -58.4500  -89.1670  107.1570 N.am  138  GLU138     -0.1979
    152  CA       -59.8870  -88.9610  107.2770 C.3   138  GLU138      0.1602
    153  C        -60.2560  -88.1020  108.4860 C.2   138  GLU138      0.2287
    154  O        -61.1110  -87.2260  108.3860 O.2   138  GLU138     -0.2864
    155  CB       -60.6210  -90.3070  107.3420 C.3   138  GLU138      0.0415
    156  CG       -60.5620  -91.1100  106.0520 C.3   138  GLU138      0.1163
    157  CD       -60.8190  -90.2680  104.8120 C.2   138  GLU138      0.3649
    158  OE1      -61.7020  -89.3900  104.8520 O.co2 138  GLU138     -0.2457
    159  OE2      -60.1440  -90.4920  103.7880 O.co2 138  GLU138     -0.2457
@<TRIPOS>BOND
     1    15    13   ar
     2    14    13   ar
     3    13    12    1
     4    95    96    1
     5    95    94    1
     6    97    96    2
     7    96    98   am
     8    90    89    2
     9    12    11    1
    10    94    89   am
    11   120   119    1
    12    89    88    1
    13   117   119   ar
    14   117   115   ar
    15    91    92    1
    16    91    88    1
    17    92    93    1
    18    11     8    1
    19   119   118   ar
    20    98    99    1
    21   115   114   ar
    22    88    87    1
    23     2     3    1
    24     2     1    1
    25     2     5    1
    26     6     5    1
    27     4     3    2
    28     3     7   am
    29    99   102    1
    30    99   100    1
    31     7     8    1
    32    93    87    1
    33     8     9    1
    34   104   106   ar
    35   104   103   ar
    36    87    82   am
    37   118   116   ar
    38   102   103    1
    39   114   116   ar
    40   114   113    1
    41   109   100   am
    42   109   110    1
    43   106   108   ar
    44   100   101    2
    45   103   105   ar
    46    10     9    2
    47    82    83    2
    48    82    81    1
    49   113   110    1
    50     9    16   am
    51    52    51    1
    52   112   111    2
    53   110   111    1
    54    79    77    1
    55    75    74    2
    56   108   107   ar
    57    81    80    1
    58    81    84    1
    59   105   107   ar
    60    16    17    1
    61    50    51    1
    62    50    49    1
    63    85    84    1
    64    69    68    2
    65    74    73    1
    66    73    76    1
    67    73    72    1
    68    84    86    1
    69    77    76    1
    70    77    78    1
    71    17    18    1
    72    49    48    1
    73    68    72   am
    74    68    67    1
    75    63    64    1
    76    63    62    1
    77    66    67    1
    78    66    64   am
    79    56    55    2
    80    19    18    2
    81    18    20   am
    82    67    70    1
    83    48    45    1
    84    64    65    2
    85    62    55   am
    86    55    54    1
    87    26    24    1
    88    20    21    1
    89    70    71    1
    90    45    46    1
    91    45    44    1
    92    46    53   am
    93    46    47    2
    94    53    54    1
    95    54    57    1
    96    21    24    1
    97    21    22    1
    98    24    25    1
    99    25    27    1
   100    44    34   am
   101    31    30    2
   102    57    58    1
   103    28    22   am
   104    28    29    1
   105    22    23    2
   106    34    35    2
   107    34    33    1
   108    30    29    1
   109   128   126    1
   110    41    39   ar
   111    41    42   ar
   112    58    59    1
   113   149   150   ar
   114   149   147   ar
   115   150   148   ar
   116    43    42    1
   117    39    37   ar
   118   127   126    1
   119    42    40   ar
   120    33    32    1
   121    33    36    1
   122   126   125    1
   123   147   146   ar
   124    37    36    1
   125    37    38   ar
   126    60    59   ar
   127    59    61   ar
   128   148   146   ar
   129    40    38   ar
   130   159   157   ar
   131   125   122    1
   132   146   145    1
   133   157   158   ar
   134   157   156    1
   135   134   133    1
   136   122   121    1
   137   122   123    1
   138   145   142    1
   139   140   137    1
   140   124   123    2
   141   156   155    1
   142   133   135    1
   143   133   130    1
   144   137   136    1
   145   137   138    1
   146   136   131   am
   147   142   143    1
   148   142   141    1
   149   144   143    2
   150   143   151   am
   151   131   132    2
   152   131   130    1
   153   151   152    1
   154   139   138    2
   155   152   155    1
   156   152   153    1
   157   130   129    1
   158   154   153    2
