@<TRIPOS>MOLECULE
tmp/2ewaA00.pdb
 159 151 0 0 0
SMALL
GASTEIGER

@<TRIPOS>ATOM
      1  N         -8.9380    2.0320   28.1950 N.3    26  VAL26      -0.1245
      2  CA        -7.5240    1.7390   28.3800 C.3    26  VAL26       0.1561
      3  C         -6.8230    3.0830   28.4530 C.2    26  VAL26       0.2260
      4  O         -5.6520    3.1830   28.8210 O.2    26  VAL26      -0.2867
      5  CB        -6.9530    0.9580   27.1820 C.3    26  VAL26       0.0252
      6  CG1       -5.5210    0.5340   27.4680 C.3    26  VAL26       0.0019
      7  CG2       -7.8250   -0.2420   26.8870 C.3    26  VAL26       0.0019
      8  N         -7.4190   10.7950   25.4390 N.3    29  GLY29      -0.1225
      9  CA        -6.5530   11.9450   25.2690 C.3    29  GLY29       0.1811
     10  C         -7.0840   12.9110   24.2340 C.2    29  GLY29       0.2280
     11  O         -8.2130   12.7740   23.7660 O.2    29  GLY29      -0.2866
     12  N         -6.2740   13.0660   21.3380 N.3    31  TYR31      -0.1241
     13  CA        -6.4230   12.2620   20.1250 C.3    31  TYR31       0.1605
     14  C         -7.7880   11.5810   20.0800 C.2    31  TYR31       0.2264
     15  O         -8.3370   11.3390   19.0050 O.2    31  TYR31      -0.2867
     16  CB        -5.3460   11.1780   20.0940 C.3    31  TYR31       0.0534
     17  CG        -5.5730   10.1170   21.1500 C.ar   31  TYR31      -0.0201
     18  CD1       -6.3750    9.0130   20.8940 C.ar   31  TYR31      -0.0009
     19  CD2       -5.0380   10.2530   22.4260 C.ar   31  TYR31      -0.0009
     20  CE1       -6.6390    8.0790   21.8750 C.ar   31  TYR31       0.0417
     21  CE2       -5.2990    9.3220   23.4170 C.ar   31  TYR31       0.0417
     22  CZ        -6.0990    8.2380   23.1370 C.ar   31  TYR31       0.1957
     23  OH        -6.3600    7.3130   24.1250 O.3    31  TYR31      -0.2866
     24  N         -8.8850    5.0060   23.6060 N.3    34  VAL34      -0.1245
     25  CA        -8.7220    3.6060   23.2670 C.3    34  VAL34       0.1561
     26  C         -9.4330    2.7520   24.3000 C.2    34  VAL34       0.2260
     27  O         -9.2500    2.9490   25.5020 O.2    34  VAL34      -0.2867
     28  CB        -7.2480    3.2170   23.2680 C.3    34  VAL34       0.0252
     29  CG1       -7.1070    1.7320   23.0290 C.3    34  VAL34       0.0019
     30  CG2       -6.5200    4.0020   22.2190 C.3    34  VAL34       0.0019
     31  N         -8.2460   -3.9390   20.8630 N.3    47  ALA47      -0.1231
     32  CA        -8.1170   -2.5590   21.3010 C.3    47  ALA47       0.1694
     33  C         -8.8330   -1.7310   20.2380 C.2    47  ALA47       0.2592
     34  O         -8.5460   -1.8430   19.0450 O.2    47  ALA47      -0.2718
     35  CB        -6.6630   -2.1660   21.3780 C.3    47  ALA47       0.0304
     36  N         -9.7830   -0.9210   20.6670 N.am   48  VAL48      -0.1966
     37  CA       -10.5290   -0.0970   19.7390 C.3    48  VAL48       0.1727
     38  C        -10.2210    1.3680   20.0050 C.2    48  VAL48       0.2616
     39  O        -10.4070    1.8520   21.1170 O.2    48  VAL48      -0.2715
     40  CB       -12.0410   -0.3370   19.8960 C.3    48  VAL48       0.0290
     41  CG1      -12.8160    0.5230   18.9160 C.3    48  VAL48       0.0023
     42  CG2      -12.3520   -1.8080   19.6830 C.3    48  VAL48       0.0023
     43  N         -9.7300    2.0680   18.9910 N.am   49  LYS49      -0.1977
     44  CA        -9.4260    3.4830   19.1530 C.3    49  LYS49       0.1596
     45  C        -10.3340    4.3960   18.3460 C.2    49  LYS49       0.2287
     46  O        -10.4790    4.2410   17.1310 O.2    49  LYS49      -0.2864
     47  CB        -7.9840    3.7950   18.7660 C.3    49  LYS49       0.0298
     48  CG        -7.7460    5.3010   18.6930 C.3    49  LYS49       0.0038
     49  CD        -6.2950    5.6670   18.5960 C.3    49  LYS49       0.0206
     50  CE        -5.6760    5.1920   17.3060 C.3    49  LYS49       0.1093
     51  NZ        -4.2730    5.6580   17.2360 N.3    49  LYS49      -0.1314
     52  N         -2.9050    8.1330    8.9730 N.3    67  GLU67      -0.1245
     53  CA        -2.8960    7.0230    9.9110 C.3    67  GLU67       0.1567
     54  C         -3.6150    5.8020    9.3480 C.2    67  GLU67       0.2260
     55  O         -3.0830    4.6900    9.4050 O.2    67  GLU67      -0.2867
     56  CB        -3.5170    7.4390   11.2480 C.3    67  GLU67       0.0388
     57  CG        -3.5810    6.2900   12.2550 C.3    67  GLU67       0.1160
     58  CD        -3.8630    6.7480   13.6710 C.2    67  GLU67       0.3649
     59  OE1       -4.1650    7.9410   13.8700 O.co2  67  GLU67      -0.2457
     60  OE2       -3.7890    5.9090   14.5940 O.co2  67  GLU67      -0.2457
     61  N         -1.8770    2.1660    8.6720 N.3    71  LEU71      -0.1245
     62  CA        -2.3960    0.9910    9.3610 C.3    71  LEU71       0.1561
     63  C         -2.8850   -0.1000    8.4160 C.2    71  LEU71       0.2260
     64  O         -2.6150   -1.2750    8.6450 O.2    71  LEU71      -0.2867
     65  CB        -3.5180    1.4020   10.3190 C.3    71  LEU71       0.0270
     66  CG        -3.0440    2.1550   11.5730 C.3    71  LEU71       0.0019
     67  CD1       -4.2300    2.7450   12.3300 C.3    71  LEU71       0.0001
     68  CD2       -2.2900    1.2050   12.4600 C.3    71  LEU71       0.0001
     69  N          2.0860   -3.2710   14.3290 N.3    80  ILE80      -0.1231
     70  CA         0.6640   -3.2300   14.5890 C.3    80  ILE80       0.1692
     71  C         -0.0920   -3.4590   13.2740 C.2    80  ILE80       0.2593
     72  O          0.2960   -2.9440   12.2140 O.2    80  ILE80      -0.2718
     73  CB         0.2910   -1.8720   15.2070 C.3    80  ILE80       0.0266
     74  CG1       -1.1960   -1.8150   15.4830 C.3    80  ILE80       0.0019
     75  CG2        0.7020   -0.7400   14.2780 C.3    80  ILE80       0.0020
     76  CD1       -1.5800   -0.5070   16.0920 C.3    80  ILE80       0.0001
     77  N         -1.1520   -4.2590   13.3460 N.am   81  GLY81      -0.1942
     78  CA        -1.9490   -4.5460   12.1660 C.3    81  GLY81       0.2014
     79  C         -3.3980   -4.1460   12.3710 C.2    81  GLY81       0.2638
     80  O         -3.8870   -4.1120   13.5000 O.2    81  GLY81      -0.2714
     81  N         -4.0950   -3.8530   11.2810 N.am   82  LEU82      -0.1977
     82  CA        -5.4880   -3.4380   11.3790 C.3    82  LEU82       0.1596
     83  C         -6.4680   -4.6160   11.2710 C.2    82  LEU82       0.2287
     84  O         -6.5910   -5.2450   10.2200 O.2    82  LEU82      -0.2864
     85  CB        -5.7820   -2.3960   10.2950 C.3    82  LEU82       0.0297
     86  CG        -6.9470   -1.4100   10.4950 C.3    82  LEU82       0.0022
     87  CD1       -6.7990   -0.6600   11.8170 C.3    82  LEU82       0.0001
     88  CD2       -6.9650   -0.4170    9.3360 C.3    82  LEU82       0.0001
     89  N        -10.6240    2.5340   14.8600 N.3   100  LEU100     -0.1231
     90  CA        -9.6110    1.6020   14.3840 C.3   100  LEU100      0.1693
     91  C         -9.5090    0.4520   15.3790 C.2   100  LEU100      0.2592
     92  O         -9.5510    0.6740   16.5980 O.2   100  LEU100     -0.2718
     93  CB        -8.2650    2.3190   14.2760 C.3   100  LEU100      0.0284
     94  CG        -8.3190    3.6420   13.5100 C.3   100  LEU100      0.0019
     95  CD1       -6.9520    4.3410   13.5550 C.3   100  LEU100      0.0001
     96  CD2       -8.7450    3.3660   12.0800 C.3   100  LEU100      0.0001
     97  N         -9.3540   -0.7690   14.8650 N.am  101  VAL101     -0.1966
     98  CA        -9.2830   -1.9570   15.7230 C.3   101  VAL101      0.1727
     99  C         -8.0450   -2.8110   15.4650 C.2   101  VAL101      0.2617
    100  O         -7.6690   -3.0370   14.3120 O.2   101  VAL101     -0.2715
    101  CB       -10.5240   -2.8710   15.5130 C.3   101  VAL101      0.0290
    102  CG1      -10.4990   -4.0260   16.5160 C.3   101  VAL101      0.0023
    103  CG2      -11.8100   -2.0610   15.6380 C.3   101  VAL101      0.0023
    104  N         -7.4250   -3.2810   16.5460 N.am  102  THR102     -0.1937
    105  CA        -6.2380   -4.1370   16.4700 C.3   102  THR102      0.2028
    106  C         -6.2100   -5.0640   17.6940 C.2   102  THR102      0.2642
    107  O         -6.9550   -4.8470   18.6470 O.2   102  THR102     -0.2714
    108  CB        -4.9340   -3.3010   16.4310 C.3   102  THR102      0.1808
    109  OG1       -3.8380   -4.1460   16.0490 O.3   102  THR102     -0.2208
    110  CG2       -4.6380   -2.6940   17.8020 C.3   102  THR102      0.0379
    111  N         -5.3620   -6.0910   17.6670 N.am  103  HIS103     -0.1959
    112  CA        -5.2720   -7.0330   18.7810 C.3   103  HIS103      0.1787
    113  C         -4.8650   -6.2880   20.0430 C.2   103  HIS103      0.2620
    114  O         -3.9870   -5.4220   20.0060 O.2   103  HIS103     -0.2715
    115  CB        -4.2340   -8.1310   18.4970 C.3   103  HIS103      0.0785
    116  CG        -4.5160   -8.9440   17.2700 C.ar  103  HIS103      0.0821
    117  ND1       -5.6060   -9.7830   17.1620 N.ar  103  HIS103     -0.2267
    118  CD2       -3.8410   -9.0550   16.1000 C.ar  103  HIS103      0.1154
    119  CE1       -5.5890  -10.3750   15.9790 C.ar  103  HIS103      0.1986
    120  NE2       -4.5280   -9.9490   15.3160 N.ar  103  HIS103     -0.2212
    121  N         -5.4990   -6.6220   21.1600 N.am  104  LEU104     -0.1963
    122  CA        -5.1760   -5.9710   22.4220 C.3   104  LEU104      0.1728
    123  C         -3.7610   -6.3600   22.8520 C.2   104  LEU104      0.2616
    124  O         -3.3830   -7.5260   22.7850 O.2   104  LEU104     -0.2715
    125  CB        -6.1760   -6.3830   23.5090 C.3   104  LEU104      0.0311
    126  CG        -6.0520   -5.6790   24.8670 C.3   104  LEU104      0.0022
    127  CD1       -6.2660   -4.1690   24.7010 C.3   104  LEU104      0.0001
    128  CD2       -7.0840   -6.2560   25.8310 C.3   104  LEU104      0.0001
    129  N         -2.9690   -5.3780   23.2650 N.am  105  MET105     -0.1977
    130  CA        -1.6130   -5.6610   23.7090 C.3   105  MET105      0.1605
    131  C         -1.5450   -5.3230   25.1950 C.2   105  MET105      0.2287
    132  O         -2.0560   -4.2900   25.6260 O.2   105  MET105     -0.2864
    133  CB        -0.5940   -4.8500   22.8970 C.3   105  MET105      0.0413
    134  CG        -0.4530   -5.3030   21.4330 C.3   105  MET105      0.0598
    135  SD         0.0550   -7.0510   21.2220 S.3   105  MET105     -0.1393
    136  CE         1.8570   -6.9240   21.3340 C.3   105  MET105      0.0692
    137  N          4.5060    0.3920   16.9250 N.3   158  LEU158     -0.1245
    138  CA         3.3000    1.1690   16.7090 C.3   158  LEU158      0.1561
    139  C          3.6340    2.6470   16.8220 C.2   158  LEU158      0.2260
    140  O          4.7850    3.0170   17.0700 O.2   158  LEU158     -0.2867
    141  CB         2.2420    0.7710   17.7350 C.3   158  LEU158      0.0270
    142  CG         2.7580    0.6720   19.1680 C.3   158  LEU158      0.0019
    143  CD1        2.9560    2.0640   19.7260 C.3   158  LEU158      0.0001
    144  CD2        1.7760   -0.1070   20.0170 C.3   158  LEU158      0.0001
    145  N          1.8400    6.1520   18.5460 N.3   160  PHE160     -0.1227
    146  CA         0.7810    6.8830   19.2240 C.3   160  PHE160      0.1736
    147  C          1.0540    8.3730   19.0480 C.2   160  PHE160      0.2596
    148  O          2.2080    8.7960   19.0050 O.2   160  PHE160     -0.2718
    149  CB         0.7580    6.5250   20.7100 C.3   160  PHE160      0.0547
    150  CG         0.5970    5.0540   20.9750 C.ar  160  PHE160     -0.0202
    151  CD1       -0.0620    4.2400   20.0680 C.ar  160  PHE160     -0.0042
    152  CD2        1.0690    4.4930   22.1490 C.ar  160  PHE160     -0.0042
    153  CE1       -0.2470    2.8960   20.3270 C.ar  160  PHE160     -0.0003
    154  CE2        0.8880    3.1500   22.4190 C.ar  160  PHE160     -0.0003
    155  CZ         0.2260    2.3520   21.5040 C.ar  160  PHE160     -0.0000
    156  N         -0.0040    9.1670   18.9330 N.am  161  GLY161     -0.1957
    157  CA         0.1750   10.5970   18.7600 C.3   161  GLY161      0.1869
    158  C          0.9790   10.9250   17.5180 C.2   161  GLY161      0.2309
    159  O          1.0560   10.1190   16.5890 O.2   161  GLY161     -0.2863
@<TRIPOS>BOND
     1    63    64    2
     2    63    62    1
     3    61    62    1
     4    52    53    1
     5    88    86    1
     6    54    55    2
     7    54    53    1
     8    62    65    1
     9    53    56    1
    10    84    83    2
    11    85    86    1
    12    85    82    1
    13    65    66    1
    14    86    87    1
    15    56    57    1
    16    83    82    1
    17    81    82    1
    18    81    79   am
    19    66    67    1
    20    66    68    1
    21    96    94    1
    22    78    79    1
    23    78    77    1
    24    72    71    2
    25    57    58    1
    26    79    80    2
    27    71    77   am
    28    71    70    1
    29    94    95    1
    30    94    93    1
    31    58    59   ar
    32    58    60   ar
    33    93    90    1
    34    75    73    1
    35   100    99    2
    36    69    70    1
    37    90    89    1
    38    90    91    1
    39    70    73    1
    40    97    91   am
    41    97    98    1
    42    73    74    1
    43   120   119   ar
    44   120   118   ar
    45    91    92    2
    46    99    98    1
    47    99   104   am
    48    74    76    1
    49   101   103    1
    50   101    98    1
    51   101   102    1
    52   119   117   ar
    53   109   108    1
    54   118   116   ar
    55   108   105    1
    56   108   110    1
    57   105   104    1
    58   105   106    1
    59   159   158    2
    60   138   139    1
    61   138   137    1
    62   138   141    1
    63   139   140    2
    64    46    45    2
    65   117   116   ar
    66    51    50    1
    67   116   115    1
    68    50    49    1
    69   158   157    1
    70   111   106   am
    71   111   112    1
    72   106   107    2
    73   141   142    1
    74    45    44    1
    75   115   112    1
    76   145   146    1
    77    49    48    1
    78    48    47    1
    79   157   156    1
    80    47    44    1
    81   112   113    1
    82    41    40    1
    83   156   147   am
    84    43    44    1
    85    43    38   am
    86   148   147    2
    87    15    14    2
    88    34    33    2
    89   147   146    1
    90   142   143    1
    91   142   144    1
    92   146   149    1
    93    42    40    1
    94    37    40    1
    95    37    38    1
    96    37    36    1
    97    38    39    2
    98   114   113    2
    99   113   121   am
   100   151   153   ar
   101   151   150   ar
   102    14    13    1
   103    16    13    1
   104    16    17    1
   105    13    12    1
   106    33    36   am
   107    33    32    1
   108   153   155   ar
   109   149   150    1
   110    31    32    1
   111    18    17   ar
   112    18    20   ar
   113   150   152   ar
   114    17    19   ar
   115   121   122    1
   116   135   136    1
   117   135   134    1
   118    32    35    1
   119   134   133    1
   120   155   154   ar
   121    20    22   ar
   122   152   154   ar
   123    30    28    1
   124   122   123    1
   125   122   125    1
   126    19    21   ar
   127   124   123    2
   128   123   129   am
   129   133   130    1
   130    29    28    1
   131    22    21   ar
   132    22    23    1
   133   129   130    1
   134    25    28    1
   135    25    24    1
   136    25    26    1
   137   125   126    1
   138   130   131    1
   139    11    10    2
   140    10     9    1
   141    26    27    2
   142   127   126    1
   143   126   128    1
   144   131   132    2
   145     9     8    1
   146     7     5    1
   147     5     6    1
   148     5     2    1
   149     1     2    1
   150     2     3    1
   151     3     4    2
