@<TRIPOS>MOLECULE
tmp/2ewbA00.pdb
 157 146 0 0 0
SMALL
GASTEIGER

@<TRIPOS>ATOM
      1  N         61.5470   61.0410    9.9610 N.3   250  LYS250     -0.1245
      2  CA        61.9110   59.6320    9.8820 C.3   250  LYS250      0.1561
      3  C         60.6980   58.8940    9.3310 C.2   250  LYS250      0.2260
      4  O         59.6270   58.9050    9.9430 O.2   250  LYS250     -0.2867
      5  CB        62.2600   59.0980   11.2740 C.3   250  LYS250      0.0271
      6  CG        62.3930   57.5780   11.3530 C.3   250  LYS250      0.0035
      7  CD        62.6410   57.1200   12.7960 C.3   250  LYS250      0.0206
      8  CE        62.6560   55.5960   12.8900 C.3   250  LYS250      0.1093
      9  NZ        62.8950   55.1200   14.2750 N.3   250  LYS250     -0.1314
     10  N         58.9420   49.0010   11.2770 N.3   255  ASP255     -0.1239
     11  CA        60.2230   48.6460   11.8480 C.3   255  ASP255      0.1674
     12  C         60.1600   47.3550   12.6530 C.2   255  ASP255      0.2266
     13  O         59.5660   47.3070   13.7320 O.2   255  ASP255     -0.2867
     14  CB        60.7120   49.7900   12.7270 C.3   255  ASP255      0.1410
     15  CG        62.1120   49.5690   13.2360 C.2   255  ASP255      0.3668
     16  OD1       62.8250   48.7170   12.6660 O.co2 255  ASP255     -0.2456
     17  OD2       62.4970   50.2630   14.1910 O.co2 255  ASP255     -0.2456
     18  N         63.1610   43.1310   16.8670 N.3   262  LYS262     -0.1245
     19  CA        62.4020   43.5470   18.0400 C.3   262  LYS262      0.1561
     20  C         61.6420   42.3830   18.6460 C.2   262  LYS262      0.2260
     21  O         61.4450   41.3530   18.0040 O.2   262  LYS262     -0.2867
     22  CB        61.3820   44.6200   17.6660 C.3   262  LYS262      0.0271
     23  CG        61.9780   45.9370   17.2380 C.3   262  LYS262      0.0035
     24  CD        60.8850   46.8770   16.7670 C.3   262  LYS262      0.0206
     25  CE        61.4540   48.2490   16.4460 C.3   262  LYS262      0.1093
     26  NZ        62.0450   48.8640   17.6650 N.3   262  LYS262     -0.1314
     27  N         54.9020   49.6390   15.5930 N.3   270  MET270     -0.1245
     28  CA        55.9970   50.1340   14.7720 C.3   270  MET270      0.1570
     29  C         55.5420   50.5190   13.3680 C.2   270  MET270      0.2261
     30  O         56.3490   50.9460   12.5400 O.2   270  MET270     -0.2867
     31  CB        57.1310   49.1080   14.7150 C.3   270  MET270      0.0387
     32  CG        57.8080   48.8760   16.0630 C.3   270  MET270      0.0595
     33  SD        58.1910   50.4190   16.9430 S.3   270  MET270     -0.1393
     34  CE        59.3410   51.1630   15.8500 C.3   270  MET270      0.0692
     35  N         56.2980   54.0380   12.9990 N.3   273  ASP273     -0.1239
     36  CA        57.6910   54.4570   13.0830 C.3   273  ASP273      0.1674
     37  C         57.9970   55.4500   11.9660 C.2   273  ASP273      0.2266
     38  O         59.1510   55.8210   11.7420 O.2   273  ASP273     -0.2867
     39  CB        58.6130   53.2410   12.9980 C.3   273  ASP273      0.1410
     40  CG        59.9710   53.4910   13.6340 C.2   273  ASP273      0.3668
     41  OD1       60.0480   54.2920   14.5930 O.co2 273  ASP273     -0.2456
     42  OD2       60.9560   52.8720   13.1860 O.co2 273  ASP273     -0.2456
     43  N         73.6440   48.1710   15.8400 N.3   330  ASN330     -0.1240
     44  CA        72.2900   47.7080   16.0990 C.3   330  ASN330      0.1653
     45  C         71.4110   48.1680   14.9420 C.2   330  ASN330      0.2266
     46  O         71.1860   49.3650   14.7500 O.2   330  ASN330     -0.2867
     47  CB        71.7780   48.2730   17.4220 C.3   330  ASN330      0.1155
     48  CG        70.4370   47.6940   17.8140 C.2   330  ASN330      0.2627
     49  OD1       69.5020   47.6860   17.0160 O.2   330  ASN330     -0.2716
     50  ND2       70.3350   47.2070   19.0460 N.am  330  ASN330     -0.0877
     51  N         68.3960   48.0920   14.6470 N.3   332  ASP332     -0.1225
     52  CA        67.1160   48.6330   15.0810 C.3   332  ASP332      0.1805
     53  C         67.2560   50.1210   15.4080 C.2   332  ASP332      0.2598
     54  O         66.2860   50.7840   15.7750 O.2   332  ASP332     -0.2718
     55  CB        66.5910   47.8510   16.2860 C.3   332  ASP332      0.1424
     56  CG        65.1250   48.1240   16.5650 C.2   332  ASP332      0.3668
     57  OD1       64.4520   48.7450   15.7110 O.co2 332  ASP332     -0.2456
     58  OD2       64.6440   47.7040   17.6380 O.co2 332  ASP332     -0.2456
     59  N         68.4760   50.6350   15.2900 N.am  333  ALA333     -0.1966
     60  CA        68.7230   52.0610   15.4950 C.3   333  ALA333      0.1728
     61  C         68.8410   52.5550   14.0530 C.2   333  ALA333      0.2616
     62  O         69.8350   53.1700   13.6660 O.2   333  ALA333     -0.2715
     63  CB        70.0330   52.2830   16.2400 C.3   333  ALA333      0.0334
     64  N         67.8070   52.2670   13.2670 N.am  334  GLU334     -0.1963
     65  CA        67.7920   52.6100   11.8480 C.3   334  GLU334      0.1733
     66  C         67.3000   54.0060   11.5120 C.2   334  GLU334      0.2617
     67  O         67.6250   54.5360   10.4530 O.2   334  GLU334     -0.2715
     68  CB        66.9570   51.5810   11.0740 C.3   334  GLU334      0.0429
     69  CG        65.4370   51.8260   11.0550 C.3   334  GLU334      0.1163
     70  CD        64.7940   51.8290   12.4360 C.2   334  GLU334      0.3649
     71  OE1       65.1940   51.0070   13.2850 O.co2 334  GLU334     -0.2457
     72  OE2       63.8720   52.6460   12.6630 O.co2 334  GLU334     -0.2457
     73  N         66.5100   54.5940   12.4030 N.am  335  GLY335     -0.1940
     74  CA        65.9900   55.9250   12.1530 C.3   335  GLY335      0.2014
     75  C         67.0940   56.9530   12.0150 C.2   335  GLY335      0.2638
     76  O         67.0420   57.8250   11.1450 O.2   335  GLY335     -0.2714
     77  N         68.1060   56.8580   12.8680 N.am  336  ARG336     -0.1977
     78  CA        69.1990   57.8100   12.7960 C.3   336  ARG336      0.1597
     79  C         70.0160   57.5770   11.5300 C.2   336  ARG336      0.2287
     80  O         70.6390   58.5000   11.0070 O.2   336  ARG336     -0.2864
     81  CB        70.0750   57.7150   14.0510 C.3   336  ARG336      0.0334
     82  CG        70.8360   56.4200   14.2220 C.3   336  ARG336      0.0492
     83  CD        71.3050   56.2930   15.6690 C.3   336  ARG336      0.2205
     84  NE        70.2010   55.9150   16.5490 N.pl3 336  ARG336     -0.0865
     85  CZ        70.2960   55.7850   17.8680 C.cat 336  ARG336      0.5346
     86  NH1       71.4520   56.0130   18.4800 N.pl3 336  ARG336      0.1354
     87  NH2       69.2370   55.4040   18.5740 N.pl3 336  ARG336      0.1354
     88  N         60.2720   59.1720   15.5690 N.3   359  THR359     -0.1203
     89  CA        59.8790   58.3040   16.6730 C.3   359  THR359      0.1994
     90  C         61.2160   57.5960   16.8490 C.2   359  THR359      0.2618
     91  O         61.3670   56.4130   16.5490 O.2   359  THR359     -0.2717
     92  CB        58.8150   57.3090   16.2140 C.3   359  THR359      0.1784
     93  OG1       59.2060   56.7570   14.9500 O.3   359  THR359     -0.2211
     94  CG2       57.4670   58.0040   16.0620 C.3   359  THR359      0.0376
     95  N         62.1910   58.3500   17.3410 N.am  360  LEU360     -0.1965
     96  CA        63.5520   57.8560   17.4460 C.3   360  LEU360      0.1728
     97  C         63.9900   56.9220   18.5550 C.2   360  LEU360      0.2617
     98  O         64.7320   55.9860   18.2910 O.2   360  LEU360     -0.2715
     99  CB        64.5140   59.0480   17.4080 C.3   360  LEU360      0.0311
    100  CG        65.9180   58.7460   16.8860 C.3   360  LEU360      0.0022
    101  CD1       65.8410   58.3180   15.4190 C.3   360  LEU360      0.0001
    102  CD2       66.7800   59.9860   17.0260 C.3   360  LEU360      0.0001
    103  N         63.5720   57.1520   19.7920 N.am  361  THR361     -0.1937
    104  CA        64.0550   56.2740   20.8530 C.3   361  THR361      0.2028
    105  C         63.0460   55.8950   21.9140 C.2   361  THR361      0.2642
    106  O         62.1820   56.6860   22.2830 O.2   361  THR361     -0.2714
    107  CB        65.2610   56.9020   21.5840 C.3   361  THR361      0.1808
    108  OG1       64.8350   58.0830   22.2790 O.3   361  THR361     -0.2208
    109  CG2       66.3550   57.2800   20.5940 C.3   361  THR361      0.0379
    110  N         63.1710   54.6670   22.4060 N.am  362  GLY362     -0.1954
    111  CA        62.2940   54.2210   23.4670 C.3   362  GLY362      0.1869
    112  C         62.7450   54.9890   24.6950 C.2   362  GLY362      0.2309
    113  O         61.9770   55.2070   25.6320 O.2   362  GLY362     -0.2863
    114  N         74.8760   53.4920   17.8480 N.3   421  ILE421     -0.1231
    115  CA        74.3630   53.2890   19.2020 C.3   421  ILE421      0.1692
    116  C         75.4680   53.7140   20.1630 C.2   421  ILE421      0.2592
    117  O         76.6470   53.5010   19.8890 O.2   421  ILE421     -0.2718
    118  CB        73.9620   51.8220   19.5050 C.3   421  ILE421      0.0266
    119  CG1       75.1770   50.8970   19.4180 C.3   421  ILE421      0.0019
    120  CG2       72.8550   51.3880   18.5660 C.3   421  ILE421      0.0020
    121  CD1       74.9100   49.4980   19.9500 C.3   421  ILE421      0.0001
    122  N         75.0870   54.3300   21.2760 N.am  422  GLY422     -0.1957
    123  CA        76.0730   54.7800   22.2440 C.3   422  GLY422      0.1869
    124  C         76.8220   53.6260   22.8820 C.2   422  GLY422      0.2309
    125  O         76.3600   52.4880   22.8400 O.2   422  GLY422     -0.2863
    126  N         77.2740   53.2990   25.9620 N.3   424  TYR424     -0.1227
    127  CA        76.5620   53.0080   27.2000 C.3   424  TYR424      0.1736
    128  C         75.0740   52.9960   26.8500 C.2   424  TYR424      0.2595
    129  O         74.6640   53.5470   25.8290 O.2   424  TYR424     -0.2718
    130  CB        76.8480   54.0790   28.2620 C.3   424  TYR424      0.0548
    131  CG        78.3210   54.3120   28.5480 C.ar  424  TYR424     -0.0200
    132  CD1       79.1880   53.2440   28.7850 C.ar  424  TYR424     -0.0009
    133  CD2       78.8440   55.6050   28.5940 C.ar  424  TYR424     -0.0009
    134  CE1       80.5410   53.4570   29.0610 C.ar  424  TYR424      0.0417
    135  CE2       80.1940   55.8310   28.8710 C.ar  424  TYR424      0.0417
    136  CZ        81.0370   54.7520   29.1010 C.ar  424  TYR424      0.1957
    137  OH        82.3720   54.9720   29.3650 O.3   424  TYR424     -0.2866
    138  N         74.2620   52.3670   27.6880 N.am  425  ARG425     -0.1980
    139  CA        72.8300   52.2900   27.4280 C.3   425  ARG425      0.1597
    140  C         72.0620   53.4790   28.0010 C.2   425  ARG425      0.2287
    141  O         70.8600   53.6130   27.7870 O.2   425  ARG425     -0.2864
    142  CB        72.2740   50.9820   27.9980 C.3   425  ARG425      0.0334
    143  CG        72.5240   50.7930   29.4880 C.3   425  ARG425      0.0492
    144  CD        72.1160   49.3980   29.9410 C.3   425  ARG425      0.2205
    145  NE        72.3050   49.2070   31.3770 N.pl3 425  ARG425     -0.0865
    146  CZ        72.1000   48.0560   32.0110 C.cat 425  ARG425      0.5346
    147  NH1       71.7000   46.9860   31.3380 N.pl3 425  ARG425      0.1354
    148  NH2       72.2920   47.9750   33.3200 N.pl3 425  ARG425      0.1354
    149  N         69.6630   57.2750   26.1040 N.3   428  GLY428     -0.1225
    150  CA        69.4390   56.8530   24.7330 C.3   428  GLY428      0.1811
    151  C         68.9550   57.9200   23.7680 C.2   428  GLY428      0.2280
    152  O         69.3750   57.9420   22.6120 O.2   428  GLY428     -0.2866
    153  N         58.9210   59.7340   19.8920 N.3   451  ALA451     -0.1245
    154  CA        58.6220   58.3460   20.2320 C.3   451  ALA451      0.1562
    155  C         57.6540   58.2380   21.4090 C.2   451  ALA451      0.2260
    156  O         56.7710   57.3790   21.4150 O.2   451  ALA451     -0.2867
    157  CB        59.9140   57.5920   20.5420 C.3   451  ALA451      0.0290
@<TRIPOS>BOND
     1     3     2    1
     2     3     4    2
     3     2     1    1
     4     2     5    1
     5    67    66    2
     6    80    79    2
     7    69    68    1
     8    69    70    1
     9    68    65    1
    10    76    75    2
    11     5     6    1
    12    10    11    1
    13     6     7    1
    14    66    65    1
    15    66    73   am
    16    79    78    1
    17    38    37    2
    18    65    64    1
    19    11    12    1
    20    11    14    1
    21    37    36    1
    22    75    74    1
    23    75    77   am
    24    74    73    1
    25    70    72   ar
    26    70    71   ar
    27    30    29    2
    28    12    13    2
    29    16    15   ar
    30    14    15    1
    31     7     8    1
    32    78    77    1
    33    78    81    1
    34     8     9    1
    35    39    36    1
    36    39    40    1
    37    35    36    1
    38    42    40   ar
    39    15    17   ar
    40    64    61   am
    41    29    28    1
    42    40    41   ar
    43    62    61    2
    44    81    82    1
    45    61    60    1
    46    82    83    1
    47    51    52    1
    48    31    28    1
    49    31    32    1
    50    46    45    2
    51    28    27    1
    52    45    44    1
    53    93    92    1
    54    52    53    1
    55    52    55    1
    56    59    53   am
    57    59    60    1
    58    53    54    2
    59   101   100    1
    60    60    63    1
    61    88    89    1
    62    83    84    1
    63    57    56   ar
    64    43    44    1
    65    34    33    1
    66    94    92    1
    67    32    33    1
    68    44    47    1
    69    92    89    1
    70    55    56    1
    71    25    24    1
    72    25    26    1
    73    91    90    2
    74    84    85    2
    75    56    58   ar
    76    89    90    1
    77    24    23    1
    78    90    95   am
    79    18    19    1
    80   100   102    1
    81   100    99    1
    82    49    48    2
    83    23    22    1
    84    95    96    1
    85    99    96    1
    86    47    48    1
    87    96    97    1
    88    22    19    1
    89    48    50   am
    90   114   115    1
    91    85    86    1
    92    85    87    1
    93    21    20    2
    94    19    20    1
    95    98    97    2
    96    97   103   am
    97   120   118    1
    98   115   118    1
    99   115   116    1
   100   119   118    1
   101   119   121    1
   102   103   104    1
   103   117   116    2
   104   153   154    1
   105   116   122   am
   106   154   157    1
   107   154   155    1
   108   109   107    1
   109   104   107    1
   110   104   105    1
   111   122   123    1
   112   155   156    2
   113   107   108    1
   114   105   106    2
   115   105   110   am
   116   123   124    1
   117   110   111    1
   118   152   151    2
   119   125   124    2
   120   111   112    1
   121   151   150    1
   122   112   113    2
   123   150   149    1
   124   129   128    2
   125   126   127    1
   126   128   127    1
   127   128   138   am
   128   127   130    1
   129   139   138    1
   130   139   142    1
   131   139   140    1
   132   141   140    2
   133   142   143    1
   134   130   131    1
   135   131   133   ar
   136   131   132   ar
   137   133   135   ar
   138   132   134   ar
   139   135   136   ar
   140   134   136   ar
   141   136   137    1
   142   143   144    1
   143   144   145    1
   144   147   146    1
   145   145   146    2
   146   146   148    1
