@<TRIPOS>MOLECULE
tmp/2ewbA03.pdb
 92 91 0 0 0
SMALL
GASTEIGER

@<TRIPOS>ATOM
      1  N         57.9170   70.5240   -1.7890 N.3   233  HIS233     -0.1226
      2  CA        58.2130   71.9440   -1.7690 C.3   233  HIS233      0.1752
      3  C         56.9150   72.7270   -1.6900 C.2   233  HIS233      0.2596
      4  O         55.9630   72.4460   -2.4220 O.2   233  HIS233     -0.2718
      5  CB        58.9310   72.3830   -3.0500 C.3   233  HIS233      0.0759
      6  CG        60.2420   71.7050   -3.2930 C.ar  233  HIS233      0.0818
      7  ND1       60.9890   71.9320   -4.4290 N.ar  233  HIS233     -0.2268
      8  CD2       60.9370   70.8030   -2.5600 C.ar  233  HIS233      0.1154
      9  CE1       62.0860   71.1970   -4.3870 C.ar  233  HIS233      0.1986
     10  NE2       62.0780   70.5030   -3.2640 N.ar  233  HIS233     -0.2212
     11  N         56.8740   73.6900   -0.7810 N.am  234  TYR234     -0.1962
     12  CA        55.7260   74.5710   -0.6560 C.3   234  TYR234      0.1771
     13  C         56.3350   75.9500   -0.8620 C.2   234  TYR234      0.2619
     14  O         57.1020   76.4250   -0.0270 O.2   234  TYR234     -0.2715
     15  CB        55.0860   74.4900    0.7260 C.3   234  TYR234      0.0574
     16  CG        54.1240   75.6290    0.9620 C.ar  234  TYR234     -0.0198
     17  CD1       53.0350   75.8290    0.1130 C.ar  234  TYR234     -0.0009
     18  CD2       54.3420   76.5510    1.9830 C.ar  234  TYR234     -0.0009
     19  CE1       52.1890   76.9250    0.2710 C.ar  234  TYR234      0.0417
     20  CE2       53.5020   77.6520    2.1480 C.ar  234  TYR234      0.0417
     21  CZ        52.4310   77.8330    1.2850 C.ar  234  TYR234      0.1957
     22  OH        51.6230   78.9420    1.4140 O.3   234  TYR234     -0.2866
     23  N         56.0080   76.5770   -1.9850 N.am  235  LYS235     -0.1977
     24  CA        56.5530   77.8850   -2.3280 C.3   235  LYS235      0.1596
     25  C         55.6090   79.0130   -1.9280 C.2   235  LYS235      0.2287
     26  O         55.0120   79.6700   -2.7800 O.2   235  LYS235     -0.2864
     27  CB        56.8320   77.9160   -3.8320 C.3   235  LYS235      0.0298
     28  CG        57.7770   76.8050   -4.2830 C.3   235  LYS235      0.0038
     29  CD        57.7040   76.5350   -5.7790 C.3   235  LYS235      0.0206
     30  CE        56.3930   75.8590   -6.1620 C.3   235  LYS235      0.1093
     31  NZ        56.3520   75.4850   -7.6080 N.3   235  LYS235     -0.1314
     32  N         60.5940   83.9030   -4.4170 N.3   240  ALA240     -0.1231
     33  CA        60.9600   82.5320   -4.7470 C.3   240  ALA240      0.1694
     34  C         62.3590   82.1400   -4.2790 C.2   240  ALA240      0.2593
     35  O         62.6270   80.9640   -4.0270 O.2   240  ALA240     -0.2718
     36  CB        60.8360   82.3150   -6.2530 C.3   240  ALA240      0.0304
     37  N         63.2470   83.1230   -4.1620 N.am  241  SER241     -0.1938
     38  CA        64.6160   82.8620   -3.7320 C.3   241  SER241      0.2055
     39  C         64.7610   82.8670   -2.2140 C.2   241  SER241      0.2642
     40  O         65.8340   82.5760   -1.6880 O.2   241  SER241     -0.2714
     41  CB        65.5650   83.9020   -4.3350 C.3   241  SER241      0.2130
     42  OG        65.2760   85.1980   -3.8400 O.3   241  SER241     -0.2179
     43  N         63.6820   83.1980   -1.5130 N.am  242  GLU242     -0.1976
     44  CA        63.7080   83.2420   -0.0570 C.3   242  GLU242      0.1602
     45  C         64.1130   81.8700    0.4850 C.2   242  GLU242      0.2287
     46  O         63.4760   80.8620    0.1760 O.2   242  GLU242     -0.2864
     47  CB        62.3290   83.6270    0.4790 C.3   242  GLU242      0.0415
     48  CG        62.3080   84.0180    1.9450 C.3   242  GLU242      0.1163
     49  CD        63.1880   85.2200    2.2370 C.2   242  GLU242      0.3649
     50  OE1       63.1470   86.1910    1.4520 O.co2 242  GLU242     -0.2457
     51  OE2       63.9120   85.1990    3.2530 O.co2 242  GLU242     -0.2457
     52  N         64.3070   78.5200    2.2830 N.3   244  PRO244     -0.2116
     53  CA        63.1980   77.7940    2.8990 C.3   244  PRO244      0.1372
     54  C         63.5060   77.2400    4.2770 C.2   244  PRO244      0.2244
     55  O         64.6640   77.1600    4.6850 O.2   244  PRO244     -0.2868
     56  CB        62.9550   76.6690    1.9090 C.3   244  PRO244      0.0268
     57  CG        64.3740   76.2770    1.5590 C.3   244  PRO244      0.0207
     58  CD        65.0740   77.6370    1.3810 C.3   244  PRO244      0.0892
     59  N         58.6430   79.7890    2.3710 N.3   295  ASN295     -0.1225
     60  CA        59.0450   78.6480    1.5710 C.3   295  ASN295      0.1785
     61  C         59.3980   77.5320    2.5350 C.2   295  ASN295      0.2597
     62  O         60.1390   77.7420    3.4980 O.2   295  ASN295     -0.2718
     63  CB        60.2500   78.9810    0.6950 C.3   295  ASN295      0.1169
     64  CG        59.8930   79.8950   -0.4590 C.2   295  ASN295      0.2627
     65  OD1       58.7670   79.8710   -0.9560 O.2   295  ASN295     -0.2716
     66  ND2       60.8580   80.6910   -0.9050 N.am  295  ASN295     -0.0877
     67  N         58.8540   76.3490    2.2810 N.am  296  ILE296     -0.1966
     68  CA        59.1170   75.2070    3.1420 C.3   296  ILE296      0.1727
     69  C         59.4350   73.9810    2.3130 C.2   296  ILE296      0.2616
     70  O         58.7920   73.7230    1.2950 O.2   296  ILE296     -0.2715
     71  CB        57.8960   74.8570    4.0170 C.3   296  ILE296      0.0290
     72  CG1       57.3090   76.1220    4.6420 C.3   296  ILE296      0.0022
     73  CG2       58.3170   73.8730    5.1110 C.3   296  ILE296      0.0023
     74  CD1       56.0120   75.8780    5.4040 C.3   296  ILE296      0.0001
     75  N         60.4370   73.2270    2.7480 N.am  297  VAL297     -0.1977
     76  CA        60.8120   72.0010    2.0660 C.3   297  VAL297      0.1596
     77  C         60.6350   70.8710    3.0710 C.2   297  VAL297      0.2287
     78  O         61.0140   71.0000    4.2340 O.2   297  VAL297     -0.2864
     79  CB        62.2820   72.0300    1.5840 C.3   297  VAL297      0.0276
     80  CG1       62.6920   70.6490    1.0820 C.3   297  VAL297      0.0022
     81  CG2       62.4450   73.0570    0.4710 C.3   297  VAL297      0.0022
     82  N         69.6700   72.9400    0.6270 N.3   349  PHE349     -0.1241
     83  CA        68.6370   73.9380    0.3700 C.3   349  PHE349      0.1605
     84  C         68.9640   75.2700    1.0290 C.2   349  PHE349      0.2264
     85  O         68.1720   76.2090    0.9540 O.2   349  PHE349     -0.2867
     86  CB        67.2860   73.4360    0.8920 C.3   349  PHE349      0.0534
     87  CG        66.7980   72.1940    0.2110 C.ar  349  PHE349     -0.0203
     88  CD1       66.1070   72.2700   -0.9940 C.ar  349  PHE349     -0.0042
     89  CD2       67.0540   70.9430    0.7610 C.ar  349  PHE349     -0.0042
     90  CE1       65.6780   71.1160   -1.6430 C.ar  349  PHE349     -0.0003
     91  CE2       66.6310   69.7810    0.1190 C.ar  349  PHE349     -0.0003
     92  CZ        65.9410   69.8670   -1.0860 C.ar  349  PHE349     -0.0000
@<TRIPOS>BOND
     1    31    30    1
     2    36    33    1
     3    30    29    1
     4    29    28    1
     5    33    32    1
     6    33    34    1
     7     7     9   ar
     8     7     6   ar
     9     9    10   ar
    10    41    42    1
    11    41    38    1
    12    28    27    1
    13    34    37   am
    14    34    35    2
    15    37    38    1
    16    27    24    1
    17    38    39    1
    18     6     5    1
    19     6     8   ar
    20    10     8   ar
    21     5     2    1
    22    26    25    2
    23     4     3    2
    24    24    23    1
    25    24    25    1
    26    39    40    2
    27    39    43   am
    28    23    13   am
    29     1     2    1
    30     2     3    1
    31     3    11   am
    32    90    92   ar
    33    90    88   ar
    34    43    44    1
    35    92    91   ar
    36    88    87   ar
    37    65    64    2
    38    66    64   am
    39    13    12    1
    40    13    14    2
    41    11    12    1
    42    12    15    1
    43    64    63    1
    44    44    47    1
    45    44    45    1
    46    17    19   ar
    47    17    16   ar
    48    91    89   ar
    49    46    45    2
    50    87    89   ar
    51    87    86    1
    52    19    21   ar
    53    83    82    1
    54    83    86    1
    55    83    84    1
    56    81    79    1
    57    47    48    1
    58    63    60    1
    59    15    16    1
    60    85    84    2
    61    16    18   ar
    62    80    79    1
    63    21    22    1
    64    21    20   ar
    65    70    69    2
    66    58    57    1
    67    58    52    1
    68    50    49   ar
    69    57    56    1
    70    60    59    1
    71    60    61    1
    72    79    76    1
    73    56    53    1
    74    48    49    1
    75    18    20   ar
    76    76    75    1
    77    76    77    1
    78    49    51   ar
    79    67    61   am
    80    67    68    1
    81    52    53    1
    82    69    75   am
    83    69    68    1
    84    61    62    2
    85    53    54    1
    86    77    78    2
    87    68    71    1
    88    71    72    1
    89    71    73    1
    90    54    55    2
    91    72    74    1
