@<TRIPOS>MOLECULE
tmp/2eweA00.pdb
 198 180 0 0 0
SMALL
GASTEIGER

@<TRIPOS>ATOM
      1  N         31.4710   17.2530   -5.1480 N.3   129  ASP129     -0.1239
      2  CA        30.7430   18.3130   -5.8570 C.3   129  ASP129      0.1674
      3  C         30.8900   18.3980   -7.3700 C.2   129  ASP129      0.2266
      4  O         30.8810   19.4920   -7.9270 O.2   129  ASP129     -0.2867
      5  CB        31.0360   19.6850   -5.2280 C.3   129  ASP129      0.1410
      6  CG        29.7680   20.5030   -4.9880 C.2   129  ASP129      0.3668
      7  OD1       28.6620   19.9370   -5.0610 O.co2 129  ASP129     -0.2456
      8  OD2       29.8720   21.7160   -4.7160 O.co2 129  ASP129     -0.2456
      9  N         29.3550   18.8130  -10.1190 N.3   131  ASP131     -0.1239
     10  CA        28.1330   19.2820  -10.7780 C.3   131  ASP131      0.1674
     11  C         28.3020   19.5380  -12.2690 C.2   131  ASP131      0.2266
     12  O         29.3820   19.9140  -12.7220 O.2   131  ASP131     -0.2867
     13  CB        27.6500   20.6030  -10.1440 C.3   131  ASP131      0.1410
     14  CG        27.2640   20.4610   -8.6870 C.2   131  ASP131      0.3668
     15  OD1       26.4900   19.5510   -8.3300 O.co2 131  ASP131     -0.2456
     16  OD2       27.7190   21.2870   -7.8870 O.co2 131  ASP131     -0.2456
     17  N         26.7060   24.6890  -11.9360 N.3   134  ARG134     -0.1245
     18  CA        26.5680   25.2190  -10.5880 C.3   134  ARG134      0.1563
     19  C         26.4800   26.7370  -10.6960 C.2   134  ARG134      0.2260
     20  O         27.2050   27.3440  -11.4840 O.2   134  ARG134     -0.2867
     21  CB        27.7500   24.8280   -9.6940 C.3   134  ARG134      0.0307
     22  CG        27.4750   25.0610   -8.1900 C.3   134  ARG134      0.0489
     23  CD        28.7340   24.9110   -7.3320 C.3   134  ARG134      0.2205
     24  NE        29.4070   23.6380   -7.5740 N.pl3 134  ARG134     -0.0865
     25  CZ        30.7270   23.4660   -7.5780 C.cat 134  ARG134      0.5346
     26  NH1       31.5410   24.4830   -7.3440 N.pl3 134  ARG134      0.1354
     27  NH2       31.2380   22.2750   -7.8670 N.pl3 134  ARG134      0.1354
     28  N         27.4500    9.5380    2.2370 N.3   160  ASP160     -0.1239
     29  CA        26.0800    9.9980    2.5440 C.3   160  ASP160      0.1674
     30  C         25.0190    9.2150    1.7570 C.2   160  ASP160      0.2266
     31  O         23.8490    9.6040    1.7170 O.2   160  ASP160     -0.2867
     32  CB        25.9170   11.5090    2.3050 C.3   160  ASP160      0.1410
     33  CG        24.7020   12.1040    3.0400 C.2   160  ASP160      0.3668
     34  OD1       24.3190   11.5730    4.1040 O.co2 160  ASP160     -0.2456
     35  OD2       24.1400   13.1230    2.5770 O.co2 160  ASP160     -0.2456
     36  N         24.4210    9.0130   -1.3460 N.3   162  ASP162     -0.1225
     37  CA        23.7430    9.7870   -2.3830 C.3   162  ASP162      0.1805
     38  C         24.6850   10.5100   -3.3450 C.2   162  ASP162      0.2598
     39  O         24.2530   11.3900   -4.0950 O.2   162  ASP162     -0.2718
     40  CB        22.8000   10.8160   -1.7310 C.3   162  ASP162      0.1424
     41  CG        23.5420   11.8860   -0.9390 C.2   162  ASP162      0.3668
     42  OD1       24.7820   11.9900   -1.0630 O.co2 162  ASP162     -0.2456
     43  OD2       22.8890   12.6430   -0.1880 O.co2 162  ASP162     -0.2456
     44  N         25.9660   10.1550   -3.3260 N.am  163  THR163     -0.1953
     45  CA        26.9290   10.8410   -4.1820 C.3   163  THR163      0.1897
     46  C         27.3990   10.1050   -5.4310 C.2   163  THR163      0.2313
     47  O         28.4700   10.4000   -5.9450 O.2   163  THR163     -0.2863
     48  CB        28.1450   11.3290   -3.3650 C.3   163  THR163      0.1794
     49  OG1       28.6840   10.2360   -2.6120 O.3   163  THR163     -0.2208
     50  CG2       27.7340   12.4400   -2.3950 C.3   163  THR163      0.0378
     51  N         26.5000   14.0140   -8.9190 N.3   166  GLU166     -0.1245
     52  CA        26.0130   15.2460   -8.3390 C.3   166  GLU166      0.1567
     53  C         24.9460   15.8120   -9.2690 C.2   166  GLU166      0.2260
     54  O         24.4230   15.0890  -10.1250 O.2   166  GLU166     -0.2867
     55  CB        27.1360   16.2370   -8.0450 C.3   166  GLU166      0.0388
     56  CG        27.5890   16.2110   -6.5860 C.3   166  GLU166      0.1160
     57  CD        26.5550   16.7920   -5.6210 C.2   166  GLU166      0.3649
     58  OE1       26.3100   18.0200   -5.6450 O.co2 166  GLU166     -0.2457
     59  OE2       25.9990   16.0320   -4.8040 O.co2 166  GLU166     -0.2457
     60  N         22.7460   22.9920   -9.8820 N.3   170  ASP170     -0.1239
     61  CA        22.6340   23.4480   -8.4910 C.3   170  ASP170      0.1674
     62  C         22.7360   24.9700   -8.4290 C.2   170  ASP170      0.2266
     63  O         23.6410   25.5700   -9.0100 O.2   170  ASP170     -0.2867
     64  CB        23.7360   22.8450   -7.6010 C.3   170  ASP170      0.1410
     65  CG        23.3540   21.4900   -7.0140 C.2   170  ASP170      0.3668
     66  OD1       22.1770   21.0960   -7.0950 O.co2 170  ASP170     -0.2456
     67  OD2       24.2410   20.7970   -6.4780 O.co2 170  ASP170     -0.2456
     68  N         22.7530   28.1120   -5.5920 N.3   172  LYS172     -0.1245
     69  CA        22.8990   28.3690   -4.1680 C.3   172  LYS172      0.1561
     70  C         23.4050   29.7850   -3.9330 C.2   172  LYS172      0.2260
     71  O         23.7910   30.4860   -4.8780 O.2   172  LYS172     -0.2867
     72  CB        23.8770   27.3560   -3.5560 C.3   172  LYS172      0.0271
     73  CG        25.1030   27.0570   -4.4300 C.3   172  LYS172      0.0035
     74  CD        26.3360   26.7060   -3.6030 C.3   172  LYS172      0.0206
     75  CE        26.2040   25.3880   -2.9160 C.3   172  LYS172      0.1093
     76  NZ        27.3600   25.0560   -2.0400 N.3   172  LYS172     -0.1314
     77  N         19.7550   11.8260  -10.5900 N.3   189  LYS189     -0.1231
     78  CA        19.1840   11.6020   -9.2720 C.3   189  LYS189      0.1693
     79  C         18.8770   12.8890   -8.5110 C.2   189  LYS189      0.2591
     80  O         17.7270   13.1360   -8.1370 O.2   189  LYS189     -0.2718
     81  CB        20.0930   10.6910   -8.4540 C.3   189  LYS189      0.0285
     82  CG        19.5530   10.3440   -7.0870 C.3   189  LYS189      0.0035
     83  CD        19.7080    8.8680   -6.8130 C.3   189  LYS189      0.0206
     84  CE        19.0920    8.4910   -5.4770 C.3   189  LYS189      0.1093
     85  NZ        19.8750    9.0090   -4.3220 N.3   189  LYS189     -0.1314
     86  N         19.8950   13.7100   -8.2780 N.am  190  LYS190     -0.1980
     87  CA        19.7080   14.9690   -7.5610 C.3   190  LYS190      0.1596
     88  C         19.8460   16.0920   -8.5840 C.2   190  LYS190      0.2287
     89  O         20.9160   16.6820   -8.7530 O.2   190  LYS190     -0.2864
     90  CB        20.7430   15.0780   -6.4460 C.3   190  LYS190      0.0298
     91  CG        20.8210   13.8030   -5.5910 C.3   190  LYS190      0.0038
     92  CD        21.7230   13.9580   -4.3790 C.3   190  LYS190      0.0206
     93  CE        23.1420   14.2980   -4.8080 C.3   190  LYS190      0.1093
     94  NZ        24.0900   14.2760   -3.6570 N.3   190  LYS190     -0.1314
     95  N         19.5330   22.0320   -6.7420 N.3   193  LEU193     -0.1245
     96  CA        19.1650   22.7510   -5.5460 C.3   193  LEU193      0.1561
     97  C         18.7830   24.1740   -5.9130 C.2   193  LEU193      0.2260
     98  O         18.9860   24.6220   -7.0440 O.2   193  LEU193     -0.2867
     99  CB        20.3440   22.8010   -4.5710 C.3   193  LEU193      0.0270
    100  CG        20.8630   21.4830   -4.0080 C.3   193  LEU193      0.0019
    101  CD1       22.1670   21.7330   -3.2910 C.3   193  LEU193      0.0001
    102  CD2       19.8370   20.8630   -3.0780 C.3   193  LEU193      0.0001
    103  N         21.3690   25.5910   -0.8020 N.3   196  SER196     -0.1202
    104  CA        22.0930   24.3770   -0.4150 C.3   196  SER196      0.2020
    105  C         21.9050   23.8810    1.0020 C.2   196  SER196      0.2619
    106  O         22.2790   22.7490    1.3010 O.2   196  SER196     -0.2717
    107  CB        23.5850   24.5220   -0.7110 C.3   196  SER196      0.2103
    108  OG        24.1130   25.6870   -0.1040 O.3   196  SER196     -0.2182
    109  N         21.3700   24.7310    1.8770 N.am  197  SER197     -0.1951
    110  CA        21.0910   24.3570    3.2690 C.3   197  SER197      0.1924
    111  C         19.8420   25.0980    3.7320 C.2   197  SER197      0.2314
    112  O         19.4150   26.0570    3.0950 O.2   197  SER197     -0.2863
    113  CB        22.2660   24.6700    4.2130 C.3   197  SER197      0.2116
    114  OG        22.3400   26.0490    4.5230 O.3   197  SER197     -0.2180
    115  N         15.1860   11.6190  -10.2600 N.3   216  ASN216     -0.1225
    116  CA        14.6960   11.2680   -8.9390 C.3   216  ASN216      0.1785
    117  C         14.0440   12.3720   -8.1250 C.2   216  ASN216      0.2597
    118  O         12.8880   12.2400   -7.7080 O.2   216  ASN216     -0.2718
    119  CB        15.7910   10.6230   -8.0930 C.3   216  ASN216      0.1169
    120  CG        15.2420   10.0140   -6.8170 C.2   216  ASN216      0.2627
    121  OD1       14.3740    9.1500   -6.8640 O.2   216  ASN216     -0.2716
    122  ND2       15.7290   10.4770   -5.6710 N.am  216  ASN216     -0.0877
    123  N         14.7840   13.4470   -7.8810 N.am  217  ALA217     -0.1966
    124  CA        14.2730   14.5270   -7.0530 C.3   217  ALA217      0.1728
    125  C         14.9220   15.8620   -7.3410 C.2   217  ALA217      0.2616
    126  O         15.7710   15.9830   -8.2220 O.2   217  ALA217     -0.2715
    127  CB        14.4810   14.1710   -5.5860 C.3   217  ALA217      0.0334
    128  N         14.4980   16.8560   -6.5660 N.am  218  LYS218     -0.1977
    129  CA        14.9930   18.2310   -6.6350 C.3   218  LYS218      0.1596
    130  C         14.7370   18.9120   -7.9730 C.2   218  LYS218      0.2287
    131  O         15.6720   19.2780   -8.6890 O.2   218  LYS218     -0.2864
    132  CB        16.4770   18.2740   -6.2560 C.3   218  LYS218      0.0298
    133  CG        16.8320   17.4240   -5.0200 C.3   218  LYS218      0.0038
    134  CD        18.2510   17.6890   -4.5640 C.3   218  LYS218      0.0206
    135  CE        18.9030   16.4790   -3.9180 C.3   218  LYS218      0.1093
    136  NZ        18.0970   15.8110   -2.8700 N.3   218  LYS218     -0.1314
    137  N         14.8300   21.7430   -5.3950 N.3   221  LEU221     -0.1245
    138  CA        14.6840   21.6220   -3.9560 C.3   221  LEU221      0.1561
    139  C         14.7480   23.1170   -3.6600 C.2   221  LEU221      0.2260
    140  O         15.8180   23.7290   -3.7350 O.2   221  LEU221     -0.2867
    141  CB        15.8740   20.9200   -3.3090 C.3   221  LEU221      0.0270
    142  CG        15.7240   20.5940   -1.8100 C.3   221  LEU221      0.0019
    143  CD1       16.8790   19.7260   -1.3520 C.3   221  LEU221      0.0001
    144  CD2       15.6410   21.8440   -0.9430 C.3   221  LEU221      0.0001
    145  N         14.2910   26.5250   -1.3910 N.3   223  ARG223     -0.1245
    146  CA        14.3820   27.0420   -0.0270 C.3   223  ARG223      0.1563
    147  C         14.1430   28.5540   -0.0550 C.2   223  ARG223      0.2260
    148  O         14.9970   29.3230   -0.5100 O.2   223  ARG223     -0.2867
    149  CB        15.7350   26.7010    0.6110 C.3   223  ARG223      0.0307
    150  CG        15.8550   25.2370    1.0200 C.3   223  ARG223      0.0489
    151  CD        17.2740   24.8780    1.3800 C.3   223  ARG223      0.2205
    152  NE        17.3640   23.5830    2.0500 N.pl3 223  ARG223     -0.0865
    153  CZ        18.1140   22.5690    1.6250 C.cat 223  ARG223      0.5346
    154  NH1       18.8390   22.6920    0.5200 N.pl3 223  ARG223      0.1354
    155  NH2       18.1630   21.4390    2.3160 N.pl3 223  ARG223      0.1354
    156  N         11.2570    9.9940   -7.4170 N.3   239  GLY239     -0.1225
    157  CA        11.3100   10.3360   -6.0020 C.3   239  GLY239      0.1811
    158  C         10.3310   11.4240   -5.5980 C.2   239  GLY239      0.2280
    159  O          9.4080   11.1760   -4.8280 O.2   239  GLY239     -0.2866
    160  N          9.8950   20.5590   -4.6810 N.3   243  ASN243     -0.1240
    161  CA         9.8380   20.4500   -3.2320 C.3   243  ASN243      0.1653
    162  C         10.0140   21.8670   -2.6920 C.2   243  ASN243      0.2266
    163  O         11.1290   22.3800   -2.6270 O.2   243  ASN243     -0.2867
    164  CB        10.9620   19.5250   -2.7500 C.3   243  ASN243      0.1155
    165  CG        10.7660   19.0580   -1.3380 C.2   243  ASN243      0.2627
    166  OD1        9.8870   19.5420   -0.6280 O.2   243  ASN243     -0.2716
    167  ND2       11.5870   18.1050   -0.9120 N.am  243  ASN243     -0.0877
    168  N         10.2580   24.3370    0.0410 N.3   245  ARG245     -0.1245
    169  CA        10.6320   24.3970    1.4470 C.3   245  ARG245      0.1563
    170  C         11.0200   25.7750    1.9750 C.2   245  ARG245      0.2260
    171  O         11.1230   26.7410    1.2200 O.2   245  ARG245     -0.2867
    172  CB        11.7560   23.3880    1.6930 C.3   245  ARG245      0.0307
    173  CG        11.3130   21.9410    1.4510 C.3   245  ARG245      0.0489
    174  CD        12.4520   21.0470    1.0110 C.3   245  ARG245      0.2205
    175  NE        13.4400   20.7870    2.0560 N.pl3 245  ARG245     -0.0865
    176  CZ        14.3510   19.8170    1.9900 C.cat 245  ARG245      0.5346
    177  NH1       14.3880   19.0110    0.9370 N.pl3 245  ARG245      0.1354
    178  NH2       15.2450   19.6670    2.9550 N.pl3 245  ARG245      0.1354
    179  N         10.9450   16.6560    3.9510 N.3   268  TYR268     -0.1241
    180  CA        12.2960   16.4580    4.4800 C.3   268  TYR268      0.1605
    181  C         12.7550   17.4320    5.5450 C.2   268  TYR268      0.2264
    182  O         13.8420   17.2650    6.1050 O.2   268  TYR268     -0.2867
    183  CB        13.3280   16.3560    3.3450 C.3   268  TYR268      0.0534
    184  CG        12.9740   15.3010    2.3190 C.ar  268  TYR268     -0.0201
    185  CD1       12.4450   14.0760    2.7170 C.ar  268  TYR268     -0.0009
    186  CD2       13.1820   15.5190    0.9570 C.ar  268  TYR268     -0.0009
    187  CE1       12.1390   13.0900    1.7910 C.ar  268  TYR268      0.0417
    188  CE2       12.8800   14.5370    0.0180 C.ar  268  TYR268      0.0417
    189  CZ        12.3620   13.3210    0.4480 C.ar  268  TYR268      0.1957
    190  OH        12.1000   12.3110   -0.4490 O.3   268  TYR268     -0.2866
    191  N          6.2280   10.6680    4.4250 N.3   299  ASP299     -0.1239
    192  CA         7.5910   10.8480    4.8830 C.3   299  ASP299      0.1674
    193  C          7.5750   10.6590    6.3960 C.2   299  ASP299      0.2266
    194  O          6.5190   10.7220    7.0170 O.2   299  ASP299     -0.2867
    195  CB         8.1360   12.2320    4.5250 C.3   299  ASP299      0.1410
    196  CG         9.6170   12.3470    4.8200 C.2   299  ASP299      0.3668
    197  OD1       10.3740   11.5210    4.2790 O.co2 299  ASP299     -0.2456
    198  OD2       10.0140   13.2030    5.6330 O.co2 299  ASP299     -0.2456
@<TRIPOS>BOND
     1    12    11    2
     2    11    10    1
     3    17    18    1
     4    20    19    2
     5    10    13    1
     6    10     9    1
     7    19    18    1
     8    77    78    1
     9    18    21    1
    10   115   116    1
    11    13    14    1
    12    54    53    2
    13    60    61    1
    14    21    22    1
    15    78    79    1
    16    78    81    1
    17    53    52    1
    18    63    62    2
    19   116   117    1
    20   116   119    1
    21    51    52    1
    22    89    88    2
    23   131   130    2
    24    14    15   ar
    25    14    16   ar
    26    88    87    1
    27    79    86   am
    28    79    80    2
    29    61    62    1
    30    61    64    1
    31    81    82    1
    32    52    55    1
    33    86    87    1
    34   126   125    2
    35    22    23    1
    36   117   123   am
    37   117   118    2
    38   119   120    1
    39    55    56    1
    40   130   129    1
    41     4     3    2
    42   123   124    1
    43    27    25    1
    44    64    65    1
    45    25    24    2
    46    25    26    1
    47    24    23    1
    48    87    90    1
    49   156   157    1
    50     3     2    1
    51   125   124    1
    52   125   128   am
    53    66    65   ar
    54    82    83    1
    55   124   127    1
    56    98    97    2
    57    65    67   ar
    58   121   120    2
    59   120   122   am
    60    83    84    1
    61    95    96    1
    62   129   128    1
    63   129   132    1
    64    56    57    1
    65    90    91    1
    66   132   133    1
    67   157   158    1
    68    47    46    2
    69    97    96    1
    70     2     5    1
    71     2     1    1
    72    58    57   ar
    73    57    59   ar
    74   158   159    2
    75    68    69    1
    76    91    92    1
    77    96    99    1
    78    84    85    1
    79    46    45    1
    80   137   138    1
    81     5     6    1
    82     7     6   ar
    83   133   134    1
    84     6     8   ar
    85    71    70    2
    86    93    92    1
    87    93    94    1
    88   160   161    1
    89    99   100    1
    90   134   135    1
    91    73    74    1
    92    73    72    1
    93    45    48    1
    94    45    44    1
    95    69    70    1
    96    69    72    1
    97    39    38    2
    98   100   101    1
    99   100   102    1
   100   138   139    1
   101   138   141    1
   102   135   136    1
   103   140   139    2
   104    74    75    1
   105    48    49    1
   106    48    50    1
   107    38    44   am
   108    38    37    1
   109   141   142    1
   110   161   164    1
   111   161   162    1
   112    75    76    1
   113   164   165    1
   114   162   163    2
   115    37    40    1
   116    37    36    1
   117   142   143    1
   118   142   144    1
   119    40    41    1
   120   145   146    1
   121   165   167   am
   122   165   166    2
   123    42    41   ar
   124    41    43   ar
   125   103   104    1
   126   107   104    1
   127   107   108    1
   128   148   147    2
   129   190   189    1
   130   104   105    1
   131   147   146    1
   132   146   149    1
   133   188   189   ar
   134   188   186   ar
   135   168   169    1
   136   189   187   ar
   137   154   153    1
   138   149   150    1
   139   177   176    1
   140   186   184   ar
   141   105   106    2
   142   105   109   am
   143   174   173    1
   144   174   175    1
   145   150   151    1
   146   171   170    2
   147   151   152    1
   148   169   172    1
   149   169   170    1
   150   173   172    1
   151   153   152    2
   152   153   155    1
   153    31    30    2
   154    30    29    1
   155   187   185   ar
   156   109   110    1
   157   176   175    2
   158   176   178    1
   159    28    29    1
   160    32    29    1
   161    32    33    1
   162   184   185   ar
   163   184   183    1
   164    35    33   ar
   165    33    34   ar
   166   112   111    2
   167   110   111    1
   168   110   113    1
   169   183   180    1
   170   179   180    1
   171   113   114    1
   172   197   196   ar
   173   191   192    1
   174   180   181    1
   175   195   196    1
   176   195   192    1
   177   196   198   ar
   178   192   193    1
   179   181   182    2
   180   193   194    2
