@<TRIPOS>MOLECULE
tmp/2ewgA00.pdb
 179 165 0 0 0
SMALL
GASTEIGER

@<TRIPOS>ATOM
      1  N         30.6620   -8.2400   10.8110 N.3    99  TYR99      -0.1227
      2  CA        29.6560   -7.4130   11.4630 C.3    99  TYR99       0.1736
      3  C         28.6930   -6.8170   10.4530 C.2    99  TYR99       0.2595
      4  O         27.5260   -6.5600   10.7610 O.2    99  TYR99      -0.2718
      5  CB        30.3450   -6.3320   12.3100 C.3    99  TYR99       0.0548
      6  CG        30.4680   -6.7610   13.7620 C.ar   99  TYR99      -0.0200
      7  CD1       29.3200   -7.1780   14.4350 C.ar   99  TYR99      -0.0009
      8  CD2       31.6750   -6.7610   14.4490 C.ar   99  TYR99      -0.0009
      9  CE1       29.3680   -7.5810   15.7550 C.ar   99  TYR99       0.0417
     10  CE2       31.7370   -7.1630   15.7740 C.ar   99  TYR99       0.0417
     11  CZ        30.5820   -7.5690   16.4110 C.ar   99  TYR99       0.1957
     12  OH        30.6020   -7.9750   17.7250 O.3    99  TYR99      -0.2866
     13  N         29.1690   -6.6080    9.2240 N.am  100  LEU100     -0.1980
     14  CA        28.2310   -6.1700    8.1900 C.3   100  LEU100      0.1596
     15  C         27.3710   -7.3360    7.7040 C.2   100  LEU100      0.2287
     16  O         26.1660   -7.1370    7.5290 O.2   100  LEU100     -0.2864
     17  CB        28.9540   -5.5320    7.0130 C.3   100  LEU100      0.0297
     18  CG        29.7350   -4.2450    7.2780 C.3   100  LEU100      0.0022
     19  CD1       30.0770   -3.5610    5.9610 C.3   100  LEU100      0.0001
     20  CD2       28.9580   -3.3130    8.1930 C.3   100  LEU100      0.0001
     21  N         24.8510   -7.6080   10.4660 N.3   103  ASP103     -0.1225
     22  CA        24.0250   -6.4180   10.5910 C.3   103  ASP103      0.1805
     23  C         22.9870   -6.2960    9.4840 C.2   103  ASP103      0.2597
     24  O         21.8530   -5.8870    9.7450 O.2   103  ASP103     -0.2718
     25  CB        24.9010   -5.1560   10.6010 C.3   103  ASP103      0.1424
     26  CG        24.0800   -3.9080   10.8970 C.2   103  ASP103      0.3668
     27  OD1       24.2070   -2.9500   10.1000 O.co2 103  ASP103     -0.2456
     28  OD2       23.8640   -3.6380   12.1060 O.co2 103  ASP103     -0.2456
     29  N         23.3430   -6.6240    8.2470 N.am  104  ASP104     -0.1974
     30  CA        22.3980   -6.4290    7.1440 C.3   104  ASP104      0.1709
     31  C         21.1230   -7.2230    7.4020 C.2   104  ASP104      0.2293
     32  O         20.0100   -6.7320    7.2410 O.2   104  ASP104     -0.2864
     33  CB        23.0490   -6.8150    5.8200 C.3   104  ASP104      0.1436
     34  CG        23.8760   -5.7060    5.2070 C.2   104  ASP104      0.3671
     35  OD1       23.8170   -4.5470    5.6690 O.co2 104  ASP104     -0.2456
     36  OD2       24.6190   -5.9810    4.2420 O.co2 104  ASP104     -0.2456
     37  N         19.3670   -5.5770   10.6500 N.3   107  ASP107     -0.1239
     38  CA        18.8190   -4.3130   10.1830 C.3   107  ASP107      0.1674
     39  C         17.8290   -4.5520    9.0450 C.2   107  ASP107      0.2266
     40  O         16.9500   -3.7310    8.7830 O.2   107  ASP107     -0.2867
     41  CB        19.9360   -3.3850    9.7130 C.3   107  ASP107      0.1410
     42  CG        20.5630   -2.5200   10.7780 C.2   107  ASP107      0.3668
     43  OD1       21.0050   -3.0240   11.8330 O.co2 107  ASP107     -0.2456
     44  OD2       20.9810   -1.3880   10.4240 O.co2 107  ASP107     -0.2456
     45  N         18.3680   -5.1140    5.4310 N.3   109  SER109     -0.1217
     46  CA        18.7080   -4.2020    4.3500 C.3   109  SER109      0.1889
     47  C         18.7530   -4.9550    3.0280 C.2   109  SER109      0.2288
     48  O         19.0730   -6.1460    3.0100 O.2   109  SER109     -0.2866
     49  CB        20.0360   -3.5180    4.6800 C.3   109  SER109      0.2089
     50  OG        20.0100   -3.0930    6.0370 O.3   109  SER109     -0.2183
     51  N         23.9040   -3.2080   -0.2320 N.3   112  ARG112     -0.1245
     52  CA        25.0270   -2.5280    0.3820 C.3   112  ARG112      0.1563
     53  C         26.1160   -2.3340   -0.6790 C.2   112  ARG112      0.2260
     54  O         26.3270   -3.2140   -1.5120 O.2   112  ARG112     -0.2867
     55  CB        25.6200   -3.2650    1.5810 C.3   112  ARG112      0.0307
     56  CG        26.7850   -2.5220    2.2290 C.3   112  ARG112      0.0489
     57  CD        27.3430   -3.2530    3.4330 C.3   112  ARG112      0.2205
     58  NE        26.3850   -3.4240    4.5250 N.pl3 112  ARG112     -0.0865
     59  CZ        26.2150   -2.5310    5.4950 C.cat 112  ARG112      0.5346
     60  NH1       26.9420   -1.4240    5.4820 N.pl3 112  ARG112      0.1354
     61  NH2       25.3410   -2.7170    6.4680 N.pl3 112  ARG112      0.1354
     62  N         31.8960   -3.8830   20.0340 N.3   168  THR168     -0.1218
     63  CA        31.0110   -3.6430   18.8950 C.3   168  THR168      0.1862
     64  C         29.7010   -4.4020   19.0630 C.2   168  THR168      0.2287
     65  O         28.5990   -3.8990   18.8270 O.2   168  THR168     -0.2866
     66  CB        31.7230   -4.0470   17.5910 C.3   168  THR168      0.1770
     67  OG1       33.0870   -3.5920   17.6250 O.3   168  THR168     -0.2211
     68  CG2       31.0900   -3.3870   16.3780 C.3   168  THR168      0.0375
     69  N         26.1660   -2.9910   19.2500 N.3   172  GLN172     -0.1245
     70  CA        25.0890   -3.5360   18.4370 C.3   172  GLN172      0.1566
     71  C         23.8450   -3.7680   19.2720 C.2   172  GLN172      0.2260
     72  O         22.7450   -3.6470   18.7380 O.2   172  GLN172     -0.2867
     73  CB        25.5230   -4.8400   17.7620 C.3   172  GLN172      0.0367
     74  CG        26.2250   -4.5860   16.4320 C.3   172  GLN172      0.0905
     75  CD        25.4850   -3.5700   15.5850 C.2   172  GLN172      0.2608
     76  OE1       24.6690   -3.9500   14.7460 O.2   172  GLN172     -0.2717
     77  NE2       25.7490   -2.2890   15.7930 N.am  172  GLN172     -0.0878
     78  N         22.1030   -0.3200   19.8970 N.3   175  ASP175     -0.1239
     79  CA        21.3790    0.1260   18.7130 C.3   175  ASP175      0.1674
     80  C         20.0170   -0.5510   18.5840 C.2   175  ASP175      0.2266
     81  O         18.9720    0.0820   18.4890 O.2   175  ASP175     -0.2867
     82  CB        22.2220   -0.1700   17.4680 C.3   175  ASP175      0.1410
     83  CG        21.5380    0.1520   16.1600 C.2   175  ASP175      0.3668
     84  OD1       21.8500    1.2140   15.5760 O.co2 175  ASP175     -0.2456
     85  OD2       20.6950   -0.6540   15.7130 O.co2 175  ASP175     -0.2456
     86  N         29.3790    1.2090   19.1600 N.3   212  LYS212     -0.1231
     87  CA        28.9770    0.4360   17.9910 C.3   212  LYS212      0.1693
     88  C         29.8340    0.7530   16.7740 C.2   212  LYS212      0.2592
     89  O         29.8870   -0.0830   15.8730 O.2   212  LYS212     -0.2718
     90  CB        27.5000    0.6680   17.6510 C.3   212  LYS212      0.0285
     91  CG        27.2600    1.5440   16.4330 C.3   212  LYS212      0.0035
     92  CD        25.7870    1.8850   16.2590 C.3   212  LYS212      0.0206
     93  CE        25.3510    1.7610   14.8110 C.3   212  LYS212      0.1093
     94  NZ        24.1180    2.5320   14.4940 N.3   212  LYS212     -0.1314
     95  N         30.4640    1.9250   16.7730 N.am  213  THR213     -0.1953
     96  CA        31.1840    2.3700   15.5850 C.3   213  THR213      0.1897
     97  C         32.5060    3.0740   15.8200 C.2   213  THR213      0.2313
     98  O         33.3580    3.0970   14.9280 O.2   213  THR213     -0.2863
     99  CB        30.2750    3.3390   14.7890 C.3   213  THR213      0.1794
    100  OG1       29.1170    2.6300   14.3380 O.3   213  THR213     -0.2208
    101  CG2       31.0280    3.8580   13.5770 C.3   213  THR213      0.0378
    102  N         35.9240    0.3670   16.6650 N.3   216  TYR216     -0.1241
    103  CA        36.4880   -0.4890   15.6200 C.3   216  TYR216      0.1605
    104  C         36.7880    0.3060   14.3550 C.2   216  TYR216      0.2264
    105  O         37.6740   -0.0720   13.5880 O.2   216  TYR216     -0.2867
    106  CB        35.5560   -1.6370   15.2870 C.3   216  TYR216      0.0534
    107  CG        34.4380   -1.4220   14.3050 C.ar  216  TYR216     -0.0201
    108  CD1       34.6280   -1.7600   12.9650 C.ar  216  TYR216     -0.0009
    109  CD2       33.1980   -0.9080   14.6790 C.ar  216  TYR216     -0.0009
    110  CE1       33.6190   -1.5760   12.0400 C.ar  216  TYR216      0.0417
    111  CE2       32.1800   -0.7240   13.7570 C.ar  216  TYR216      0.0417
    112  CZ        32.3970   -1.0600   12.4380 C.ar  216  TYR216      0.1957
    113  OH        31.4130   -0.8990   11.4850 O.3   216  TYR216     -0.2866
    114  N         29.5560    8.3290   12.4670 N.3   252  GLN252     -0.1245
    115  CA        28.2530    7.6570   12.4580 C.3   252  GLN252      0.1566
    116  C         27.1720    8.6570   12.0590 C.2   252  GLN252      0.2260
    117  O         26.4260    8.4160   11.1150 O.2   252  GLN252     -0.2867
    118  CB        27.9500    7.0200   13.8090 C.3   252  GLN252      0.0367
    119  CG        26.7550    6.0850   13.7790 C.3   252  GLN252      0.0905
    120  CD        26.9210    4.9440   12.8010 C.2   252  GLN252      0.2608
    121  OE1       27.9360    4.2490   12.8100 O.2   252  GLN252     -0.2717
    122  NE2       25.9200    4.7460   11.9540 N.am  252  GLN252     -0.0878
    123  N         26.9920    9.0980    8.7440 N.3   255  ASP255     -0.1225
    124  CA        26.2930    7.9610    8.1520 C.3   255  ASP255      0.1805
    125  C         24.7810    8.1540    8.1910 C.2   255  ASP255      0.2597
    126  O         24.0920    8.1520    7.1750 O.2   255  ASP255     -0.2718
    127  CB        26.6870    6.6900    8.9050 C.3   255  ASP255      0.1424
    128  CG        26.1400    5.4350    8.2630 C.2   255  ASP255      0.3668
    129  OD1       26.5680    5.1300    7.1350 O.co2 255  ASP255     -0.2456
    130  OD2       25.2850    4.7610    8.8690 O.co2 255  ASP255     -0.2456
    131  N         24.2920    8.3280    9.4070 N.am  256  ASP256     -0.1974
    132  CA        22.9400    8.6700    9.7890 C.3   256  ASP256      0.1709
    133  C         22.3230    9.7490    8.9080 C.2   256  ASP256      0.2293
    134  O         21.1920    9.6320    8.4370 O.2   256  ASP256     -0.2864
    135  CB        22.9290    9.1720   11.2400 C.3   256  ASP256      0.1436
    136  CG        22.9180    8.0320   12.2410 C.2   256  ASP256      0.3671
    137  OD1       23.1040    6.8790   11.8120 O.co2 256  ASP256     -0.2456
    138  OD2       22.7200    8.3110   13.4460 O.co2 256  ASP256     -0.2456
    139  N         22.3150    8.6120    5.2560 N.3   259  ASP259     -0.1239
    140  CA        21.2190    7.6660    5.1440 C.3   259  ASP259      0.1674
    141  C         19.9050    8.3370    4.7630 C.2   259  ASP259      0.2266
    142  O         19.1980    7.8330    3.8850 O.2   259  ASP259     -0.2867
    143  CB        21.0460    6.8900    6.4560 C.3   259  ASP259      0.1410
    144  CG        20.2310    5.6270    6.2180 C.2   259  ASP259      0.3668
    145  OD1       20.8330    4.5830    5.8960 O.co2 259  ASP259     -0.2456
    146  OD2       18.9910    5.7110    6.3440 O.co2 259  ASP259     -0.2456
    147  N         23.0890    2.2610   -1.4930 N.3   269  LYS269     -0.1245
    148  CA        21.9930    1.4320   -1.0190 C.3   269  LYS269      0.1561
    149  C         20.7140    2.2490   -0.8440 C.2   269  LYS269      0.2260
    150  O         20.7070    3.4730   -0.9630 O.2   269  LYS269     -0.2867
    151  CB        22.3210    0.7580    0.3170 C.3   269  LYS269      0.0271
    152  CG        23.0090    1.6140    1.3580 C.3   269  LYS269      0.0035
    153  CD        22.0850    2.5270    2.1360 C.3   269  LYS269      0.0206
    154  CE        22.0460    2.2140    3.6180 C.3   269  LYS269      0.1093
    155  NZ        23.3970    2.2360    4.2410 N.3   269  LYS269     -0.1314
    156  N         17.4680    2.9740    4.8800 N.3   272  THR272     -0.1203
    157  CA        16.7150    2.1400    5.8110 C.3   272  THR272      0.1994
    158  C         16.0820    2.9530    6.9440 C.2   272  THR272      0.2617
    159  O         14.9070    3.3210    6.8420 O.2   272  THR272     -0.2717
    160  CB        17.6240    1.0320    6.3850 C.3   272  THR272      0.1784
    161  OG1       17.2940    0.7580    7.7490 O.3   272  THR272     -0.2211
    162  CG2       19.0810    1.4800    6.3720 C.3   272  THR272      0.0376
    163  N         16.8470    3.2070    7.9740 N.am  273  ASP273     -0.1973
    164  CA        16.6940    3.9280    9.2140 C.3   273  ASP273      0.1709
    165  C         15.3120    4.4660    9.5240 C.2   273  ASP273      0.2293
    166  O         14.7740    4.2060   10.6230 O.2   273  ASP273     -0.2864
    167  CB        17.7500    5.0650    9.2130 C.3   273  ASP273      0.1436
    168  CG        19.1390    4.4740    9.3970 C.2   273  ASP273      0.3671
    169  OD1       19.2310    3.3590    9.9550 O.co2 273  ASP273     -0.2456
    170  OD2       20.1550    5.0770    8.9980 O.co2 273  ASP273     -0.2456
    171  N         15.2230    3.4620   13.4990 N.3   278  LYS278     -0.1245
    172  CA        16.2880    3.3510   14.5010 C.3   278  LYS278      0.1561
    173  C         16.5040    4.6710   15.2210 C.2   278  LYS278      0.2260
    174  O         15.9690    5.7150   14.8520 O.2   278  LYS278     -0.2867
    175  CB        17.5730    2.8570   13.8290 C.3   278  LYS278      0.0271
    176  CG        17.3880    1.5700   13.0330 C.3   278  LYS278      0.0035
    177  CD        17.7310    0.3480   13.8690 C.3   278  LYS278      0.0206
    178  CE        18.2720   -0.7860   13.0110 C.3   278  LYS278      0.1093
    179  NZ        18.2920   -0.4380   11.5620 N.3   278  LYS278     -0.1314
@<TRIPOS>BOND
     1    54    53    2
     2   147   148    1
     3   148   149    1
     4   148   151    1
     5   150   149    2
     6    53    52    1
     7    51    52    1
     8   151   152    1
     9    52    55    1
    10   152   153    1
    11    55    56    1
    12   153   154    1
    13    56    57    1
    14    48    47    2
    15    47    46    1
    16    57    58    1
    17   154   155    1
    18   142   141    2
    19    36    34   ar
    20    46    49    1
    21    46    45    1
    22    58    59    2
    23    49    50    1
    24   141   140    1
    25   156   157    1
    26   140   139    1
    27   140   143    1
    28    34    35   ar
    29    34    33    1
    30    60    59    1
    31    59    61    1
    32   157   160    1
    33   157   158    1
    34    33    30    1
    35   145   144   ar
    36    19    18    1
    37   144   146   ar
    38   144   143    1
    39   162   160    1
    40   160   161    1
    41   159   158    2
    42   158   163   am
    43    17    18    1
    44    17    14    1
    45   129   128   ar
    46    30    31    1
    47    30    29    1
    48   126   125    2
    49    32    31    2
    50    18    20    1
    51    16    15    2
    52    15    14    1
    53   163   164    1
    54   124   125    1
    55   124   123    1
    56   124   127    1
    57    14    13    1
    58   125   131   am
    59    29    23   am
    60   128   130   ar
    61   128   127    1
    62   134   133    2
    63    40    39    2
    64   133   132    1
    65   170   168   ar
    66    39    38    1
    67   167   164    1
    68   167   168    1
    69   164   165    1
    70    13     3   am
    71   168   169   ar
    72   131   132    1
    73    23    24    2
    74    23    22    1
    75   165   166    2
    76    41    38    1
    77    41    42    1
    78   132   135    1
    79    27    26   ar
    80    38    37    1
    81    44    42   ar
    82     3     4    2
    83     3     2    1
    84    21    22    1
    85    22    25    1
    86    25    26    1
    87    42    43   ar
    88     1     2    1
    89    26    28   ar
    90   117   116    2
    91   135   136    1
    92     2     5    1
    93   113   112    1
    94   179   178    1
    95   137   136   ar
    96   122   120   am
    97   110   112   ar
    98   110   108   ar
    99   116   115    1
   100   136   138   ar
   101     5     6    1
   102   112   111   ar
   103   115   114    1
   104   115   118    1
   105   120   121    2
   106   120   119    1
   107   108   107   ar
   108   178   177    1
   109   176   175    1
   110   176   177    1
   111   171   172    1
   112   101    99    1
   113   105   104    2
   114   111   109   ar
   115     6     7   ar
   116     6     8   ar
   117   119   118    1
   118   175   172    1
   119   107   109   ar
   120   107   106    1
   121   100    99    1
   122   104   103    1
   123     7     9   ar
   124     8    10   ar
   125    94    93    1
   126   172   173    1
   127    76    75    2
   128    99    96    1
   129    93    92    1
   130   174   173    2
   131    98    97    2
   132   106   103    1
   133    84    83   ar
   134    96    97    1
   135    96    95    1
   136    75    77   am
   137    75    74    1
   138   103   102    1
   139    85    83   ar
   140     9    11   ar
   141    10    11   ar
   142    89    88    2
   143    83    82    1
   144    92    91    1
   145    68    66    1
   146    11    12    1
   147    74    73    1
   148    91    90    1
   149    95    88   am
   150    88    87    1
   151    82    79    1
   152    66    67    1
   153    66    63    1
   154    90    87    1
   155    73    70    1
   156    87    86    1
   157    70    69    1
   158    70    71    1
   159    81    80    2
   160    80    79    1
   161    79    78    1
   162    72    71    2
   163    65    64    2
   164    63    64    1
   165    63    62    1
