@<TRIPOS>MOLECULE
tmp/2ewsB00.pdb
 168 155 0 0 0
SMALL
GASTEIGER

@<TRIPOS>ATOM
      1  N         36.2500   65.4290    6.4650 N.3     6  ASP6       -0.1239
      2  CA        36.0210   64.3450    5.5160 C.3     6  ASP6        0.1674
      3  C         34.6410   64.6600    4.9540 C.2     6  ASP6        0.2266
      4  O         33.6310   64.3560    5.5800 O.2     6  ASP6       -0.2867
      5  CB        36.0000   63.0020    6.2450 C.3     6  ASP6        0.1410
      6  CG        35.7820   61.8280    5.3080 C.2     6  ASP6        0.3668
      7  OD1       35.4660   62.0490    4.1140 O.co2   6  ASP6       -0.2456
      8  OD2       35.9230   60.6830    5.7760 O.co2   6  ASP6       -0.2456
      9  N         31.9970   63.6720    2.8190 N.3     8  GLY8       -0.1210
     10  CA        31.4540   62.5770    2.0350 C.3     8  GLY8        0.1956
     11  C         30.2210   62.9430    1.2350 C.2     8  GLY8        0.2612
     12  O         29.7490   64.0830    1.2760 O.2     8  GLY8       -0.2717
     13  N         29.6910   61.9610    0.5080 N.am    9  GLY9       -0.1942
     14  CA        28.5150   62.1910   -0.3030 C.3     9  GLY9        0.2014
     15  C         27.2790   62.4240    0.5410 C.2     9  GLY9        0.2640
     16  O         26.3470   63.0910    0.1010 O.2     9  GLY9       -0.2714
     17  N         27.2680   61.8860    1.7560 N.am   10  THR10      -0.1936
     18  CA        26.1110   62.0550    2.6310 C.3    10  THR10       0.2028
     19  C         26.4050   62.8740    3.8820 C.2    10  THR10       0.2642
     20  O         25.6650   63.8100    4.1950 O.2    10  THR10      -0.2714
     21  CB        25.5230   60.6950    3.0410 C.3    10  THR10       0.1808
     22  OG1       25.1070   59.9830    1.8690 O.3    10  THR10      -0.2208
     23  CG2       24.3180   60.8870    3.9430 C.3    10  THR10       0.0379
     24  N         27.4780   62.5340    4.5930 N.am   11  LEU11      -0.1977
     25  CA        27.8410   63.2720    5.8100 C.3    11  LEU11       0.1596
     26  C         29.2080   63.9450    5.7380 C.2    11  LEU11       0.2287
     27  O         30.1500   63.4020    5.1710 O.2    11  LEU11      -0.2864
     28  CB        27.8450   62.3520    7.0360 C.3    11  LEU11       0.0297
     29  CG        26.5780   61.6200    7.4720 C.3    11  LEU11       0.0022
     30  CD1       26.8560   60.9050    8.7900 C.3    11  LEU11       0.0001
     31  CD2       25.4220   62.6160    7.6330 C.3    11  LEU11       0.0001
     32  N         32.1410   64.9850    7.9980 N.3    13  LYS13      -0.1245
     33  CA        32.6950   64.7600    9.3290 C.3    13  LYS13       0.1561
     34  C         33.8030   65.7790    9.5970 C.2    13  LYS13       0.2260
     35  O         34.7710   65.8610    8.8390 O.2    13  LYS13      -0.2867
     36  CB        33.2650   63.3470    9.4530 C.3    13  LYS13       0.0271
     37  CG        32.2090   62.2600    9.5600 C.3    13  LYS13       0.0035
     38  CD        31.4600   62.0420    8.2510 C.3    13  LYS13       0.0206
     39  CE        32.3710   61.4250    7.1800 C.3    13  LYS13       0.1093
     40  NZ        31.5580   61.0090    5.9890 N.3    13  LYS13      -0.1314
     41  N         29.3990   66.3700   13.0940 N.3    26  THR26      -0.1218
     42  CA        28.8990   65.8860   11.8210 C.3    26  THR26       0.1862
     43  C         27.8160   66.8110   11.2910 C.2    26  THR26       0.2287
     44  O         26.9880   67.3270   12.0450 O.2    26  THR26      -0.2866
     45  CB        28.2960   64.4680   11.9580 C.3    26  THR26       0.1770
     46  OG1       29.3120   63.5510   12.3780 O.3    26  THR26      -0.2211
     47  CG2       27.7080   64.0030   10.6380 C.3    26  THR26       0.0375
     48  N         25.2400   67.4600    7.5770 N.3    28  LEU28      -0.1245
     49  CA        24.7410   66.8610    6.3510 C.3    28  LEU28       0.1561
     50  C         25.4240   67.5210    5.1550 C.2    28  LEU28       0.2260
     51  O         25.6140   68.7320    5.1280 O.2    28  LEU28      -0.2867
     52  CB        23.2220   67.0410    6.2420 C.3    28  LEU28       0.0270
     53  CG        22.3320   66.5480    7.3910 C.3    28  LEU28       0.0019
     54  CD1       20.8770   66.7430    7.0020 C.3    28  LEU28       0.0001
     55  CD2       22.5930   65.0750    7.6930 C.3    28  LEU28       0.0001
     56  N         34.8000   62.9470   -1.2650 N.3    52  GLY52      -0.1225
     57  CA        34.4340   63.4330   -2.5860 C.3    52  GLY52       0.1811
     58  C         34.0400   64.8950   -2.7120 C.2    52  GLY52       0.2280
     59  O         34.0810   65.4500   -3.8150 O.2    52  GLY52      -0.2866
     60  N         41.0330   59.9530    0.2010 N.3    70  GLU70      -0.1245
     61  CA        40.2430   59.3590    1.2680 C.3    70  GLU70       0.1567
     62  C         40.7180   57.9920    1.7570 C.2    70  GLU70       0.2260
     63  O         40.7440   57.7420    2.9530 O.2    70  GLU70      -0.2867
     64  CB        38.7810   59.2890    0.8200 C.3    70  GLU70       0.0388
     65  CG        37.7960   58.7820    1.8730 C.3    70  GLU70       0.1160
     66  CD        37.7060   57.2660    1.9300 C.2    70  GLU70       0.3649
     67  OE1       37.4720   56.6420    0.8730 O.co2  70  GLU70      -0.2457
     68  OE2       37.8520   56.6970    3.0310 O.co2  70  GLU70      -0.2457
     69  N         34.9560   50.1780    5.6970 N.3    96  ASN96      -0.1240
     70  CA        34.4080   51.5110    5.8970 C.3    96  ASN96       0.1653
     71  C         32.9520   51.4620    5.4540 C.2    96  ASN96       0.2266
     72  O         32.6590   51.5250    4.2640 O.2    96  ASN96      -0.2867
     73  CB        35.1950   52.5360    5.0600 C.3    96  ASN96       0.1155
     74  CG        34.8930   53.9700    5.4570 C.2    96  ASN96       0.2627
     75  OD1       33.8980   54.2400    6.1250 O.2    96  ASN96      -0.2716
     76  ND2       35.7430   54.9010    5.0270 N.am   96  ASN96      -0.0877
     77  N         30.0570   53.2720    4.9180 N.3    98  GLY98      -0.1210
     78  CA        29.4890   54.5940    4.7630 C.3    98  GLY98       0.1956
     79  C         28.2070   54.5030    3.9770 C.2    98  GLY98       0.2613
     80  O         27.3130   53.7170    4.3150 O.2    98  GLY98      -0.2717
     81  N         28.1090   55.3030    2.9250 N.am   99  THR99      -0.1938
     82  CA        26.9270   55.2780    2.0840 C.3    99  THR99       0.2028
     83  C         26.9040   53.8660    1.4960 C.2    99  THR99       0.2642
     84  O         25.8770   53.1800    1.5000 O.2    99  THR99      -0.2714
     85  CB        27.0280   56.3440    0.9840 C.3    99  THR99       0.1808
     86  OG1       27.1500   57.6370    1.5990 O.3    99  THR99      -0.2208
     87  CG2       25.7800   56.3300    0.1020 C.3    99  THR99       0.0379
     88  N         28.0620   53.4520    1.0000 N.am  100  GLY100     -0.1954
     89  CA        28.2440   52.1180    0.4720 C.3   100  GLY100      0.1869
     90  C         29.3410   51.5480    1.3520 C.2   100  GLY100      0.2309
     91  O         29.7070   52.1720    2.3560 O.2   100  GLY100     -0.2863
     92  N         25.0520   52.0500    4.7010 N.3   121  GLY121     -0.1210
     93  CA        24.1440   53.0010    5.3050 C.3   121  GLY121      0.1956
     94  C         23.1070   53.5400    4.3510 C.2   121  GLY121      0.2612
     95  O         21.9990   53.8740    4.7610 O.2   121  GLY121     -0.2717
     96  N         23.4620   53.6480    3.0760 N.am  122  GLY122     -0.1956
     97  CA        22.5070   54.1480    2.1050 C.3   122  GLY122      0.1869
     98  C         21.3390   53.1780    1.9780 C.2   122  GLY122      0.2309
     99  O         20.1910   53.5940    1.8910 O.2   122  GLY122     -0.2863
    100  N         20.3780   50.9550    4.2620 N.3   124  ILE124     -0.1231
    101  CA        19.6390   51.0030    5.5130 C.3   124  ILE124      0.1692
    102  C         18.5850   52.1220    5.4480 C.2   124  ILE124      0.2591
    103  O         17.4190   51.9060    5.7880 O.2   124  ILE124     -0.2718
    104  CB        20.6110   51.2180    6.7000 C.3   124  ILE124      0.0266
    105  CG1       21.4460   49.9460    6.9030 C.3   124  ILE124      0.0019
    106  CG2       19.8510   51.5700    7.9660 C.3   124  ILE124      0.0020
    107  CD1       22.4170   49.9820    8.0630 C.3   124  ILE124      0.0001
    108  N         18.9870   53.3110    5.0040 N.am  125  GLN125     -0.1979
    109  CA        18.0510   54.4310    4.9040 C.3   125  GLN125      0.1601
    110  C         17.0140   54.2250    3.8050 C.2   125  GLN125      0.2287
    111  O         15.8210   54.4430    4.0140 O.2   125  GLN125     -0.2864
    112  CB        18.7840   55.7520    4.6060 C.3   125  GLN125      0.0394
    113  CG        19.6570   56.3160    5.7340 C.3   125  GLN125      0.0908
    114  CD        20.1730   57.7160    5.4110 C.2   125  GLN125      0.2608
    115  OE1       19.4900   58.7190    5.6420 O.2   125  GLN125     -0.2717
    116  NE2       21.3650   57.7830    4.8460 N.am  125  GLN125     -0.0878
    117  N         16.3830   59.8240   10.1170 N.3   137  TYR137     -0.1227
    118  CA        17.4160   58.8470   10.4610 C.3   137  TYR137      0.1736
    119  C         17.3690   58.2850   11.8800 C.2   137  TYR137      0.2595
    120  O         17.3080   57.0680   12.0640 O.2   137  TYR137     -0.2718
    121  CB        18.8080   59.4320   10.2230 C.3   137  TYR137      0.0548
    122  CG        19.9010   58.4250   10.4830 C.ar  137  TYR137     -0.0200
    123  CD1       20.1620   57.4100    9.5640 C.ar  137  TYR137     -0.0009
    124  CD2       20.6480   58.4580   11.6570 C.ar  137  TYR137     -0.0009
    125  CE1       21.1340   56.4550    9.8010 C.ar  137  TYR137      0.0417
    126  CE2       21.6310   57.4990   11.9080 C.ar  137  TYR137      0.0417
    127  CZ        21.8680   56.5020   10.9660 C.ar  137  TYR137      0.1957
    128  OH        22.8610   55.5750   11.1610 O.3   137  TYR137     -0.2866
    129  N         17.4390   59.1640   12.8780 N.am  138  LYS138     -0.1980
    130  CA        17.3940   58.7380   14.2760 C.3   138  LYS138      0.1596
    131  C         16.1560   57.8970   14.5420 C.2   138  LYS138      0.2287
    132  O         16.2050   56.9060   15.2610 O.2   138  LYS138     -0.2864
    133  CB        17.3630   59.9470   15.2100 C.3   138  LYS138      0.0298
    134  CG        18.7250   60.4690   15.6150 C.3   138  LYS138      0.0038
    135  CD        19.4350   61.1490   14.4630 C.3   138  LYS138      0.0206
    136  CE        20.7150   61.8130   14.9480 C.3   138  LYS138      0.1093
    137  NZ        21.5590   60.8540   15.7180 N.3   138  LYS138     -0.1314
    138  N         32.7490   53.7590   10.1190 N.3   216  GLY216     -0.1210
    139  CA        31.6980   54.2920    9.2730 C.3   216  GLY216      0.1956
    140  C         30.5780   54.9550   10.0470 C.2   216  GLY216      0.2613
    141  O         30.2390   54.5330   11.1500 O.2   216  GLY216     -0.2717
    142  N         29.9960   55.9990    9.4680 N.am  217  SER217     -0.1938
    143  CA        28.9110   56.7060   10.1240 C.3   217  SER217      0.2055
    144  C         27.6600   55.8360   10.1690 C.2   217  SER217      0.2643
    145  O         26.6920   56.1680   10.8460 O.2   217  SER217     -0.2714
    146  CB        28.6030   58.0130    9.3860 C.3   217  SER217      0.2130
    147  OG        29.7470   58.8460    9.3050 O.3   217  SER217     -0.2179
    148  N         27.6820   54.7250    9.4400 N.am  218  SER218     -0.1949
    149  CA        26.5340   53.8290    9.4130 C.3   218  SER218      0.1924
    150  C         26.2850   53.2530   10.7870 C.2   218  SER218      0.2314
    151  O         25.1770   52.8480   11.0970 O.2   218  SER218     -0.2863
    152  CB        26.7530   52.6910    8.4100 C.3   218  SER218      0.2116
    153  OG        26.6920   53.1810    7.0800 O.3   218  SER218     -0.2180
    154  N         26.4610   54.9350   13.4690 N.3   220  HIS220     -0.1241
    155  CA        25.9260   56.0060   14.3090 C.3   220  HIS220      0.1621
    156  C         24.4330   55.8900   14.6570 C.2   220  HIS220      0.2264
    157  O         23.5630   55.8790   13.7770 O.2   220  HIS220     -0.2867
    158  CB        26.2020   57.3680   13.6630 C.3   220  HIS220      0.0745
    159  CG        27.6530   57.7460   13.6510 C.ar  220  HIS220      0.0817
    160  ND1       28.0920   59.0080   13.3070 N.ar  220  HIS220     -0.2268
    161  CD2       28.7660   57.0280   13.9380 C.ar  220  HIS220      0.1154
    162  CE1       29.4100   59.0510   13.3830 C.ar  220  HIS220      0.1986
    163  NE2       29.8430   57.8620   13.7640 N.ar  220  HIS220     -0.2212
    164  N         34.3860   56.7230   12.6090 N.3   247  ALA247     -0.1245
    165  CA        33.8030   57.3390   11.4320 C.3   247  ALA247      0.1562
    166  C         34.5680   58.6110   11.0790 C.2   247  ALA247      0.2260
    167  O         34.4010   59.1630    9.9900 O.2   247  ALA247     -0.2867
    168  CB        32.3460   57.6600   11.6870 C.3   247  ALA247      0.0290
@<TRIPOS>BOND
     1    59    58    2
     2    58    57    1
     3    57    56    1
     4    14    13    1
     5    14    15    1
     6    16    15    2
     7    87    85    1
     8    60    61    1
     9    89    88    1
    10    89    90    1
    11    13    11   am
    12    15    17   am
    13    64    61    1
    14    64    65    1
    15    67    66   ar
    16    85    86    1
    17    85    82    1
    18    88    83   am
    19    11    12    2
    20    11    10    1
    21    61    62    1
    22    90    91    2
    23    83    84    2
    24    83    82    1
    25    17    18    1
    26    62    63    2
    27    22    21    1
    28    65    66    1
    29    99    98    2
    30    66    68   ar
    31    98    97    1
    32    10     9    1
    33    82    81    1
    34    97    96    1
    35    18    21    1
    36    18    19    1
    37    81    79   am
    38    21    23    1
    39    96    94   am
    40   110   111    2
    41   110   109    1
    42    19    20    2
    43    19    24   am
    44    79    80    2
    45    79    78    1
    46     7     6   ar
    47   100   101    1
    48    72    71    2
    49    94    95    2
    50    94    93    1
    51    24    25    1
    52   112   109    1
    53   112   113    1
    54    92    93    1
    55    78    77    1
    56   116   114   am
    57   109   108    1
    58     3     2    1
    59     3     4    2
    60   108   102   am
    61    76    74   am
    62    73    74    1
    63    73    70    1
    64    51    50    2
    65    50    49    1
    66    27    26    2
    67     6     8   ar
    68     6     5    1
    69   114   115    2
    70   114   113    1
    71   102   101    1
    72   102   103    2
    73    71    70    1
    74    74    75    2
    75   101   104    1
    76     2     5    1
    77     2     1    1
    78    69    70    1
    79    26    25    1
    80    25    28    1
    81    40    39    1
    82    52    49    1
    83    52    53    1
    84    49    48    1
    85   104   105    1
    86   104   106    1
    87   105   107    1
    88    54    53    1
    89    28    29    1
    90   153   152    1
    91    39    38    1
    92    53    55    1
    93    29    31    1
    94    29    30    1
    95    32    33    1
    96    38    37    1
    97   152   149    1
    98    35    34    2
    99   139   140    1
   100   139   138    1
   101   147   146    1
   102    33    36    1
   103    33    34    1
   104   146   143    1
   105   149   148    1
   106   149   150    1
   107   148   144   am
   108    36    37    1
   109   142   140   am
   110   142   143    1
   111   123   125   ar
   112   123   122   ar
   113   125   127   ar
   114   167   166    2
   115   140   141    2
   116   117   118    1
   117   143   144    1
   118   144   145    2
   119   121   118    1
   120   121   122    1
   121   118   119    1
   122   122   124   ar
   123    47    45    1
   124   150   151    2
   125   127   128    1
   126   127   126   ar
   127   166   165    1
   128    43    42    1
   129    43    44    2
   130   165   168    1
   131   165   164    1
   132   124   126   ar
   133    42    45    1
   134    42    41    1
   135   119   120    2
   136   119   129   am
   137    45    46    1
   138   129   130    1
   139   160   162   ar
   140   160   159   ar
   141   162   163   ar
   142   154   155    1
   143   159   158    1
   144   159   161   ar
   145   158   155    1
   146   163   161   ar
   147   157   156    2
   148   130   131    1
   149   130   133    1
   150   155   156    1
   151   135   136    1
   152   135   134    1
   153   131   132    2
   154   136   137    1
   155   133   134    1
