@<TRIPOS>MOLECULE
tmp/2ewvA00.pdb
 129 125 0 0 0
SMALL
GASTEIGER

@<TRIPOS>ATOM
      1  N        -13.5080   47.1460   14.1860 N.3   106  PRO106     -0.2116
      2  CA       -13.6310   48.2470   13.2180 C.3   106  PRO106      0.1372
      3  C        -14.9780   48.3780   12.5120 C.2   106  PRO106      0.2244
      4  O        -15.6030   47.3750   12.1740 O.2   106  PRO106     -0.2868
      5  CB       -12.5140   47.9510   12.2190 C.3   106  PRO106      0.0268
      6  CG       -11.5180   47.2090   13.0200 C.3   106  PRO106      0.0207
      7  CD       -12.3850   46.2710   13.8140 C.3   106  PRO106      0.0892
      8  N        -14.7720   51.8550    7.7090 N.3   110  LYS110     -0.1231
      9  CA       -13.3280   52.1080    7.8470 C.3   110  LYS110      0.1693
     10  C        -12.4460   51.1030    7.1030 C.2   110  LYS110      0.2591
     11  O        -11.3210   51.4150    6.7210 O.2   110  LYS110     -0.2718
     12  CB       -12.9320   52.1000    9.3260 C.3   110  LYS110      0.0285
     13  CG       -13.7650   53.0030   10.2320 C.3   110  LYS110      0.0035
     14  CD       -13.3360   52.8330   11.6870 C.3   110  LYS110      0.0206
     15  CE       -14.3030   53.5110   12.6450 C.3   110  LYS110      0.1093
     16  NZ       -14.1780   52.9920   14.0450 N.3   110  LYS110     -0.1314
     17  N        -12.9620   49.8930    6.9260 N.am  111  LEU111     -0.1980
     18  CA       -12.2510   48.8340    6.2210 C.3   111  LEU111      0.1596
     19  C        -11.8380   49.3090    4.8300 C.2   111  LEU111      0.2287
     20  O        -10.6630   49.5660    4.5720 O.2   111  LEU111     -0.2864
     21  CB       -13.1520   47.5950    6.1030 C.3   111  LEU111      0.0297
     22  CG       -12.9540   46.4320    7.0850 C.3   111  LEU111      0.0022
     23  CD1      -12.7530   46.9300    8.5130 C.3   111  LEU111      0.0001
     24  CD2      -14.1590   45.5120    6.9860 C.3   111  LEU111      0.0001
     25  N         -1.2790   36.0920    4.4030 N.3   134  THR134     -0.1203
     26  CA        -1.3420   36.3850    5.8220 C.3   134  THR134      0.1994
     27  C         -0.8850   37.8470    5.9690 C.2   134  THR134      0.2618
     28  O          0.2400   38.1990    5.6040 O.2   134  THR134     -0.2717
     29  CB        -0.4290   35.4160    6.6370 C.3   134  THR134      0.1784
     30  OG1        0.1440   34.4270    5.7640 O.3   134  THR134     -0.2211
     31  CG2       -1.2520   34.6990    7.7160 C.3   134  THR134      0.0376
     32  N         -1.7900   38.6920    6.4680 N.am  135  GLY135     -0.1942
     33  CA        -1.5170   40.1110    6.6450 C.3   135  GLY135      0.2014
     34  C         -2.2580   40.9500    5.6070 C.2   135  GLY135      0.2640
     35  O         -1.6860   41.8580    4.9950 O.2   135  GLY135     -0.2714
     36  N         -3.5410   40.6610    5.4050 N.am  136  SER136     -0.1935
     37  CA        -4.3120   41.3960    4.4140 C.3   136  SER136      0.2055
     38  C         -5.7300   41.7860    4.8270 C.2   136  SER136      0.2644
     39  O         -6.5670   42.0580    3.9720 O.2   136  SER136     -0.2714
     40  CB        -4.3500   40.6020    3.1100 C.3   136  SER136      0.2130
     41  OG        -4.7470   39.2720    3.3580 O.3   136  SER136     -0.2179
     42  N         -6.0010   41.8070    6.1300 N.am  137  GLY137     -0.1939
     43  CA        -7.3170   42.2120    6.6040 C.3   137  GLY137      0.2014
     44  C         -8.3920   41.1550    6.7520 C.2   137  GLY137      0.2639
     45  O         -9.5090   41.4550    7.1700 O.2   137  GLY137     -0.2714
     46  N         -8.0600   39.9160    6.4160 N.am  138  LYS138     -0.1963
     47  CA        -9.0140   38.8160    6.5060 C.3   138  LYS138      0.1728
     48  C         -9.7870   38.8000    7.8350 C.2   138  LYS138      0.2617
     49  O        -11.0110   38.8910    7.8350 O.2   138  LYS138     -0.2715
     50  CB        -8.2920   37.4670    6.2970 C.3   138  LYS138      0.0311
     51  CG        -7.5480   37.3100    4.9630 C.3   138  LYS138      0.0038
     52  CD        -7.0830   35.8640    4.7330 C.3   138  LYS138      0.0206
     53  CE        -5.9190   35.4630    5.6320 C.3   138  LYS138      0.1093
     54  NZ        -4.6470   36.1540    5.2700 N.3   138  LYS138     -0.1314
     55  N         -9.0690   38.6790    8.9540 N.am  139  SER139     -0.1936
     56  CA        -9.6800   38.6460   10.2880 C.3   139  SER139      0.2055
     57  C        -10.6380   39.8040   10.4820 C.2   139  SER139      0.2644
     58  O        -11.8110   39.6110   10.8170 O.2   139  SER139     -0.2714
     59  CB        -8.6200   38.7260   11.3920 C.3   139  SER139      0.2130
     60  OG        -7.8720   37.5280   11.5240 O.3   139  SER139     -0.2179
     61  N        -10.1170   41.0110   10.2760 N.am  140  THR140     -0.1936
     62  CA       -10.8980   42.2360   10.4200 C.3   140  THR140      0.2028
     63  C        -12.1180   42.2450    9.4870 C.2   140  THR140      0.2642
     64  O        -13.2390   42.4660    9.9560 O.2   140  THR140     -0.2714
     65  CB       -10.0200   43.4970   10.1490 C.3   140  THR140      0.1808
     66  OG1       -8.7810   43.3800   10.8580 O.3   140  THR140     -0.2208
     67  CG2      -10.7330   44.7620   10.6170 C.3   140  THR140      0.0379
     68  N        -11.9060   42.0030    8.1860 N.am  141  THR141     -0.1950
     69  CA       -13.0110   41.9960    7.2300 C.3   141  THR141      0.1897
     70  C        -14.1040   41.0740    7.7040 C.2   141  THR141      0.2313
     71  O        -15.2760   41.3940    7.5610 O.2   141  THR141     -0.2863
     72  CB       -12.5950   41.5200    5.8170 C.3   141  THR141      0.1794
     73  OG1      -11.7760   42.5110    5.1860 O.3   141  THR141     -0.2208
     74  CG2      -13.8300   41.2870    4.9470 C.3   141  THR141      0.0378
     75  N         -9.2010   35.6660   17.6750 N.3   165  GLU165     -0.1231
     76  CA        -8.6300   36.9930   17.4440 C.3   165  GLU165      0.1699
     77  C         -9.5470   38.0530   18.0550 C.2   165  GLU165      0.2592
     78  O         -9.2560   38.5930   19.1230 O.2   165  GLU165     -0.2718
     79  CB        -8.4740   37.2440   15.9430 C.3   165  GLU165      0.0402
     80  CG        -7.5260   38.3770   15.5960 C.3   165  GLU165      0.1161
     81  CD        -6.0770   37.9320   15.4730 C.2   165  GLU165      0.3649
     82  OE1       -5.2060   38.8280   15.3860 O.co2 165  GLU165     -0.2457
     83  OE2       -5.8100   36.7040   15.4480 O.co2 165  GLU165     -0.2457
     84  N        -10.6460   38.3610   17.3720 N.am  166  TYR166     -0.1976
     85  CA       -11.6020   39.3260   17.9040 C.3   166  TYR166      0.1639
     86  C        -12.6600   38.5830   18.7290 C.2   166  TYR166      0.2290
     87  O        -12.9580   37.4100   18.4770 O.2   166  TYR166     -0.2864
     88  CB       -12.3080   40.1150   16.7890 C.3   166  TYR166      0.0560
     89  CG       -11.4650   41.1420   16.0400 C.ar  166  TYR166     -0.0198
     90  CD1      -11.1690   42.3830   16.5890 C.ar  166  TYR166     -0.0009
     91  CD2      -10.9890   40.8660   14.7490 C.ar  166  TYR166     -0.0009
     92  CE1      -10.4220   43.3210   15.8690 C.ar  166  TYR166      0.0417
     93  CE2      -10.2440   41.7940   14.0260 C.ar  166  TYR166      0.0417
     94  CZ        -9.9620   43.0170   14.5870 C.ar  166  TYR166      0.1957
     95  OH        -9.2110   43.9120   13.8630 O.3   166  TYR166     -0.2866
     96  N         -2.8850   44.1390    1.3680 N.3   270  LEU270     -0.1245
     97  CA        -2.7890   45.4630    1.9690 C.3   270  LEU270      0.1561
     98  C         -1.6180   46.2950    1.4610 C.2   270  LEU270      0.2260
     99  O         -0.4970   46.1750    1.9570 O.2   270  LEU270     -0.2867
    100  CB        -2.7160   45.3570    3.4860 C.3   270  LEU270      0.0270
    101  CG        -4.0120   44.9080    4.1450 C.3   270  LEU270      0.0019
    102  CD1       -3.9430   45.2030    5.6360 C.3   270  LEU270      0.0001
    103  CD2       -5.1800   45.6440    3.5060 C.3   270  LEU270      0.0001
    104  N         -1.8590   52.4220    5.1130 N.3   278  ARG278     -0.1231
    105  CA        -2.7630   51.3410    4.7530 C.3   278  ARG278      0.1694
    106  C         -3.9890   51.6870    3.8850 C.2   278  ARG278      0.2592
    107  O         -4.7360   52.6180    4.1710 O.2   278  ARG278     -0.2718
    108  CB        -3.1740   50.6360    6.0480 C.3   278  ARG278      0.0321
    109  CG        -2.6570   51.3360    7.3080 C.3   278  ARG278      0.0489
    110  CD        -3.6760   52.3270    7.7670 C.3   278  ARG278      0.2205
    111  NE        -4.0140   51.9810    9.1290 N.pl3 278  ARG278     -0.0865
    112  CZ        -5.2470   51.9000    9.6040 C.cat 278  ARG278      0.5346
    113  NH1       -6.2940   52.1500    8.8250 N.pl3 278  ARG278      0.1354
    114  NH2       -5.4200   51.5350   10.8650 N.pl3 278  ARG278      0.1354
    115  N         -4.1190   50.9540    2.7800 N.am  279  VAL279     -0.1966
    116  CA        -5.2100   51.0490    1.8070 C.3   279  VAL279      0.1727
    117  C         -5.3330   49.6180    1.3360 C.2   279  VAL279      0.2616
    118  O         -4.4040   48.8280    1.4840 O.2   279  VAL279     -0.2715
    119  CB        -4.8560   51.9210    0.5690 C.3   279  VAL279      0.0290
    120  CG1       -6.0210   51.9060   -0.4420 C.3   279  VAL279      0.0023
    121  CG2       -4.5850   53.3330    1.0080 C.3   279  VAL279      0.0023
    122  N         -6.4560   49.2800    0.7350 N.am  280  LEU280     -0.1977
    123  CA        -6.6110   47.9000    0.3610 C.3   280  LEU280      0.1596
    124  C         -6.9670   47.5790   -1.0840 C.2   280  LEU280      0.2287
    125  O         -7.8940   48.1570   -1.6440 O.2   280  LEU280     -0.2864
    126  CB        -7.6330   47.2990    1.3140 C.3   280  LEU280      0.0297
    127  CG        -8.4300   46.0310    1.0340 C.3   280  LEU280      0.0022
    128  CD1       -7.6340   44.7610    1.3480 C.3   280  LEU280      0.0001
    129  CD2       -9.6840   46.1060    1.8980 C.3   280  LEU280      0.0001
@<TRIPOS>BOND
     1   125   124    2
     2   124   123    1
     3   120   119    1
     4   123   122    1
     5   123   126    1
     6   119   121    1
     7   119   116    1
     8   122   117   am
     9   127   126    1
    10   127   128    1
    11   127   129    1
    12   117   118    2
    13   117   116    1
    14    96    97    1
    15    98    99    2
    16    98    97    1
    17   116   115    1
    18    97   100    1
    19   115   106   am
    20    40    41    1
    21    40    37    1
    22   100   101    1
    23   103   101    1
    24   106   107    2
    25   106   105    1
    26    39    38    2
    27   101   102    1
    28    25    26    1
    29    37    38    1
    30    37    36    1
    31    20    19    2
    32    52    51    1
    33    52    53    1
    34   105   104    1
    35   105   108    1
    36    38    42   am
    37    19    18    1
    38    74    72    1
    39    51    50    1
    40    35    34    2
    41    73    72    1
    42    54    53    1
    43    36    34   am
    44    28    27    2
    45    34    33    1
    46    30    29    1
    47    72    69    1
    48    26    27    1
    49    26    29    1
    50    27    32   am
    51   108   109    1
    52    21    18    1
    53    21    22    1
    54    42    43    1
    55    18    17    1
    56    50    47    1
    57    46    47    1
    58    46    44   am
    59    32    33    1
    60    47    48    1
    61    43    44    1
    62    29    31    1
    63    11    10    2
    64    44    45    2
    65    17    10   am
    66    24    22    1
    67    22    23    1
    68    10     9    1
    69    69    70    1
    70    69    68    1
    71   109   110    1
    72    71    70    2
    73     8     9    1
    74   110   111    1
    75    49    48    2
    76    48    55   am
    77     9    12    1
    78    68    63   am
    79   113   112    1
    80    55    56    1
    81   111   112    2
    82    12    13    1
    83    63    64    2
    84    63    62    1
    85   112   114    1
    86    65    62    1
    87    65    67    1
    88    65    66    1
    89    13    14    1
    90    61    62    1
    91    61    57   am
    92    56    57    1
    93    56    59    1
    94    57    58    2
    95    59    60    1
    96    14    15    1
    97     4     3    2
    98     5     6    1
    99     5     2    1
   100     3     2    1
   101    15    16    1
   102     6     7    1
   103     2     1    1
   104     7     1    1
   105    95    94    1
   106    93    94   ar
   107    93    91   ar
   108    94    92   ar
   109    91    89   ar
   110    82    81   ar
   111    83    81   ar
   112    81    80    1
   113    80    79    1
   114    92    90   ar
   115    79    76    1
   116    89    90   ar
   117    89    88    1
   118    88    85    1
   119    84    85    1
   120    84    77   am
   121    76    75    1
   122    76    77    1
   123    85    86    1
   124    77    78    2
   125    87    86    2
