@<TRIPOS>MOLECULE
tmp/2ewwA00.pdb
 166 159 0 0 0
SMALL
GASTEIGER

@<TRIPOS>ATOM
      1  N          1.9340   38.6460   22.1950 N.3    98  ARG98      -0.1245
      2  CA         1.3430   39.4800   21.1560 C.3    98  ARG98       0.1563
      3  C          0.1100   40.1650   21.7240 C.2    98  ARG98       0.2260
      4  O         -0.5210   39.6520   22.6490 O.2    98  ARG98      -0.2867
      5  CB         0.9320   38.6290   19.9550 C.3    98  ARG98       0.0307
      6  CG         1.2360   39.2770   18.6080 C.3    98  ARG98       0.0489
      7  CD         0.1030   39.1200   17.5910 C.3    98  ARG98       0.2205
      8  NE        -0.4960   37.7850   17.5810 N.pl3  98  ARG98      -0.0865
      9  CZ        -1.6220   37.4770   16.9430 C.cat  98  ARG98       0.5346
     10  NH1       -2.1000   36.2390   16.9930 N.pl3  98  ARG98       0.1354
     11  NH2       -2.2730   38.4060   16.2520 N.pl3  98  ARG98       0.1354
     12  N        -13.4950   46.8420   14.0730 N.3   105  PRO105     -0.2116
     13  CA       -13.7070   48.0450   13.2790 C.3   105  PRO105      0.1372
     14  C        -15.0860   48.1190   12.6260 C.2   105  PRO105      0.2244
     15  O        -15.7020   47.0880   12.3540 O.2   105  PRO105     -0.2868
     16  CB       -12.6100   47.9520   12.2070 C.3   105  PRO105      0.0268
     17  CG       -11.5840   47.0440   12.7930 C.3   105  PRO105      0.0207
     18  CD       -12.3970   46.0290   13.5190 C.3   105  PRO105      0.0892
     19  N        -14.7990   51.6270    7.8010 N.3   109  LYS109     -0.1231
     20  CA       -13.3640   51.7680    8.1030 C.3   109  LYS109      0.1693
     21  C        -12.4670   50.9010    7.2040 C.2   109  LYS109      0.2591
     22  O        -11.3800   51.3230    6.8160 O.2   109  LYS109     -0.2718
     23  CB       -13.0750   51.4250    9.5670 C.3   109  LYS109      0.0285
     24  CG       -13.4490   52.4890   10.5710 C.3   109  LYS109      0.0035
     25  CD       -12.9550   52.0840   11.9560 C.3   109  LYS109      0.0206
     26  CE       -13.6010   52.9110   13.0620 C.3   109  LYS109      0.1093
     27  NZ       -13.6420   52.1570   14.3480 N.3   109  LYS109     -0.1314
     28  N        -12.9410   49.6970    6.8910 N.am  110  LEU110     -0.1980
     29  CA       -12.2000   48.6990    6.1180 C.3   110  LEU110      0.1596
     30  C        -11.6900   49.1970    4.7640 C.2   110  LEU110      0.2287
     31  O        -10.5050   49.4990    4.6180 O.2   110  LEU110     -0.2864
     32  CB       -13.0670   47.4480    5.9170 C.3   110  LEU110      0.0297
     33  CG       -12.9310   46.2340    6.8410 C.3   110  LEU110      0.0022
     34  CD1      -12.8770   46.6060    8.3150 C.3   110  LEU110      0.0001
     35  CD2      -14.0680   45.2600    6.5660 C.3   110  LEU110      0.0001
     36  N         -1.3010   35.7830    4.8030 N.3   132  THR132     -0.1203
     37  CA        -1.2460   36.2970    6.1660 C.3   132  THR132      0.1994
     38  C         -0.8840   37.7810    6.1600 C.2   132  THR132      0.2618
     39  O          0.1360   38.1740    5.5990 O.2   132  THR132     -0.2717
     40  CB        -0.2120   35.5490    7.0170 C.3   132  THR132      0.1784
     41  OG1       -0.2360   34.1530    6.6890 O.3   132  THR132     -0.2211
     42  CG2       -0.5050   35.7480    8.5100 C.3   132  THR132      0.0376
     43  N         -1.7450   38.5930    6.7660 N.am  133  GLY133     -0.1942
     44  CA        -1.5230   40.0320    6.9020 C.3   133  GLY133      0.2014
     45  C         -2.2050   40.8890    5.8510 C.2   133  GLY133      0.2640
     46  O         -1.7060   41.9630    5.5050 O.2   133  GLY133     -0.2714
     47  N         -3.3390   40.4260    5.3320 N.am  134  SER134     -0.1935
     48  CA        -4.0700   41.1850    4.3170 C.3   134  SER134      0.2055
     49  C         -5.4710   41.5680    4.7910 C.2   134  SER134      0.2644
     50  O         -6.2880   42.0520    4.0020 O.2   134  SER134     -0.2714
     51  CB        -4.1280   40.4180    2.9960 C.3   134  SER134      0.2130
     52  OG        -4.8140   39.1900    3.1500 O.3   134  SER134     -0.2179
     53  N         -5.7370   41.3440    6.0790 N.am  135  GLY135     -0.1939
     54  CA        -6.9760   41.7930    6.7090 C.3   135  GLY135      0.2014
     55  C         -8.1220   40.7960    6.7270 C.2   135  GLY135      0.2639
     56  O         -9.2760   41.1750    6.9660 O.2   135  GLY135     -0.2714
     57  N         -7.8070   39.5250    6.4770 N.am  136  LYS136     -0.1963
     58  CA        -8.8180   38.4650    6.4370 C.3   136  LYS136      0.1728
     59  C         -9.6460   38.4260    7.7210 C.2   136  LYS136      0.2617
     60  O        -10.8770   38.4710    7.6730 O.2   136  LYS136     -0.2715
     61  CB        -8.1690   37.0950    6.2000 C.3   136  LYS136      0.0311
     62  CG        -7.2970   36.9890    4.9460 C.3   136  LYS136      0.0038
     63  CD        -6.8270   35.5500    4.7040 C.3   136  LYS136      0.0206
     64  CE        -5.9130   35.0280    5.8170 C.3   136  LYS136      0.1093
     65  NZ        -4.5580   35.6540    5.7920 N.3   136  LYS136     -0.1314
     66  N         -8.9590   38.3580    8.8600 N.am  137  SER137     -0.1936
     67  CA        -9.6160   38.2520   10.1590 C.3   137  SER137      0.2055
     68  C        -10.4330   39.4860   10.4890 C.2   137  SER137      0.2644
     69  O        -11.4820   39.3950   11.1310 O.2   137  SER137     -0.2714
     70  CB        -8.5940   37.9930   11.2580 C.3   137  SER137      0.2130
     71  OG        -8.3300   36.6060   11.3650 O.3   137  SER137     -0.2179
     72  N         -9.9460   40.6340   10.0310 N.am  138  THR138     -0.1936
     73  CA       -10.6200   41.8990   10.2450 C.3   138  THR138      0.2028
     74  C        -11.9400   41.9250    9.4790 C.2   138  THR138      0.2642
     75  O        -12.9990   42.1440   10.0730 O.2   138  THR138     -0.2714
     76  CB        -9.7090   43.0720    9.8570 C.3   138  THR138      0.1808
     77  OG1       -8.5850   43.0870   10.7390 O.3   138  THR138     -0.2208
     78  CG2      -10.4370   44.3990    9.9750 C.3   138  THR138      0.0379
     79  N        -11.8690   41.6730    8.1750 N.am  139  THR139     -0.1950
     80  CA       -13.0470   41.6490    7.3130 C.3   139  THR139      0.1897
     81  C        -14.1350   40.7280    7.8670 C.2   139  THR139      0.2313
     82  O        -15.3070   41.1170    7.9220 O.2   139  THR139     -0.2863
     83  CB       -12.6720   41.2180    5.8840 C.3   139  THR139      0.1794
     84  OG1      -11.7950   42.1930    5.3110 O.3   139  THR139     -0.2208
     85  CG2      -13.9090   41.0700    5.0070 C.3   139  THR139      0.0378
     86  N         -9.1250   35.5210   17.4900 N.3   162  GLU162     -0.1231
     87  CA        -8.5120   36.8230   17.2760 C.3   162  GLU162      0.1699
     88  C         -9.3440   37.9040   17.9710 C.2   162  GLU162      0.2592
     89  O         -9.0260   38.2990   19.0980 O.2   162  GLU162     -0.2718
     90  CB        -8.3600   37.0790   15.7710 C.3   162  GLU162      0.0402
     91  CG        -7.3310   38.1340   15.3770 C.3   162  GLU162      0.1161
     92  CD        -5.8840   37.7210   15.6380 C.2   162  GLU162      0.3649
     93  OE1       -5.0540   38.6290   15.8880 O.co2 162  GLU162     -0.2457
     94  OE2       -5.5740   36.5060   15.5950 O.co2 162  GLU162     -0.2457
     95  N        -10.4100   38.3610   17.3070 N.am  163  TYR163     -0.1976
     96  CA       -11.3540   39.3110   17.8970 C.3   163  TYR163      0.1639
     97  C        -12.4220   38.5500   18.6840 C.2   163  TYR163      0.2290
     98  O        -12.7220   37.3930   18.3800 O.2   163  TYR163     -0.2864
     99  CB       -12.0470   40.1470   16.8230 C.3   163  TYR163      0.0560
    100  CG       -11.1630   40.9980   15.9240 C.ar  163  TYR163     -0.0198
    101  CD1      -10.9080   42.3300   16.2260 C.ar  163  TYR163     -0.0009
    102  CD2      -10.6340   40.4840   14.7340 C.ar  163  TYR163     -0.0009
    103  CE1      -10.1230   43.1230   15.3840 C.ar  163  TYR163      0.0417
    104  CE2       -9.8520   41.2710   13.8850 C.ar  163  TYR163      0.0417
    105  CZ        -9.5990   42.5880   14.2220 C.ar  163  TYR163      0.1957
    106  OH        -8.8280   43.3760   13.3960 O.3   163  TYR163     -0.2866
    107  N         -9.6410   28.4820    9.7390 N.3   203  GLU203     -0.1245
    108  CA        -8.8300   28.0440    8.6150 C.3   203  GLU203      0.1567
    109  C         -9.3070   26.6920    8.1020 C.2   203  GLU203      0.2260
    110  O         -9.7620   25.8400    8.8760 O.2   203  GLU203     -0.2867
    111  CB        -7.3590   27.9640    9.0180 C.3   203  GLU203      0.0388
    112  CG        -6.6340   29.3110    9.0120 C.3   203  GLU203      0.1160
    113  CD        -5.5690   29.4220   10.0970 C.2   203  GLU203      0.3649
    114  OE1       -5.4730   28.5050   10.9430 O.co2 203  GLU203     -0.2457
    115  OE2       -4.8320   30.4300   10.1050 O.co2 203  GLU203     -0.2457
    116  N        -11.6980   30.9140    5.2900 N.3   225  THR225     -0.1218
    117  CA       -10.4920   31.6620    4.9160 C.3   225  THR225      0.1862
    118  C         -9.4030   30.7830    4.2900 C.2   225  THR225      0.2287
    119  O         -8.9530   29.8050    4.8920 O.2   225  THR225     -0.2866
    120  CB        -9.8820   32.4460    6.1180 C.3   225  THR225      0.1770
    121  OG1       -9.3420   31.5300    7.0760 O.3   225  THR225     -0.2211
    122  CG2      -10.9230   33.3270    6.7960 C.3   225  THR225      0.0375
    123  N         -5.6110   30.9640    1.6480 N.3   227  HIS227     -0.1241
    124  CA        -4.3990   31.7660    1.4690 C.3   227  HIS227      0.1621
    125  C         -4.1670   32.1830    0.0050 C.2   227  HIS227      0.2264
    126  O         -3.1900   32.8710   -0.2970 O.2   227  HIS227     -0.2867
    127  CB        -3.1770   31.0480    2.0530 C.3   227  HIS227      0.0745
    128  CG        -3.1310   31.0500    3.5510 C.ar  227  HIS227      0.0817
    129  ND1       -3.0620   32.2100    4.2940 N.ar  227  HIS227     -0.2268
    130  CD2       -3.1250   30.0330    4.4450 C.ar  227  HIS227      0.1154
    131  CE1       -3.0250   31.9080    5.5800 C.ar  227  HIS227      0.1986
    132  NE2       -3.0610   30.5930    5.6990 N.ar  227  HIS227     -0.2212
    133  N         -2.9550   44.1690    1.4090 N.3   266  LEU266     -0.1245
    134  CA        -2.7230   45.4610    2.0480 C.3   266  LEU266      0.1561
    135  C         -1.4680   46.1460    1.5090 C.2   266  LEU266      0.2260
    136  O         -0.3430   45.7940    1.8760 O.2   266  LEU266     -0.2867
    137  CB        -2.6610   45.3220    3.5730 C.3   266  LEU266      0.0270
    138  CG        -3.9930   45.2620    4.3250 C.3   266  LEU266      0.0019
    139  CD1       -3.7780   44.8160    5.7610 C.3   266  LEU266      0.0001
    140  CD2       -4.7160   46.6050    4.2860 C.3   266  LEU266      0.0001
    141  N         -1.8370   52.6350    5.2940 N.3   274  ARG274     -0.1231
    142  CA        -2.6820   51.4450    5.3980 C.3   274  ARG274      0.1694
    143  C         -3.8870   51.4340    4.4410 C.2   274  ARG274      0.2592
    144  O         -4.9250   52.0370    4.7350 O.2   274  ARG274     -0.2718
    145  CB        -3.1510   51.2940    6.8510 C.3   274  ARG274      0.0321
    146  CG        -3.0620   49.8840    7.3890 C.3   274  ARG274      0.0489
    147  CD        -1.6250   49.3820    7.3930 C.3   274  ARG274      0.2205
    148  NE        -1.5590   47.9310    7.5370 N.pl3 274  ARG274     -0.0865
    149  CZ        -0.4590   47.2100    7.3560 C.cat 274  ARG274      0.5346
    150  NH1        0.6820   47.8000    7.0210 N.pl3 274  ARG274      0.1354
    151  NH2       -0.5030   45.8960    7.5090 N.pl3 274  ARG274      0.1354
    152  N         -3.7480   50.7450    3.3060 N.am  275  VAL275     -0.1966
    153  CA        -4.8420   50.6250    2.3240 C.3   275  VAL275      0.1727
    154  C         -5.0410   49.2050    1.7660 C.2   275  VAL275      0.2616
    155  O         -4.0850   48.4720    1.5150 O.2   275  VAL275     -0.2715
    156  CB        -4.7510   51.7050    1.1950 C.3   275  VAL275      0.0290
    157  CG1       -5.0850   51.1380   -0.1830 C.3   275  VAL275      0.0023
    158  CG2       -5.6700   52.8580    1.5140 C.3   275  VAL275      0.0023
    159  N         -6.3040   48.8460    1.5750 N.am  276  LEU276     -0.1977
    160  CA        -6.6910   47.5150    1.1550 C.3   276  LEU276      0.1596
    161  C         -7.0720   47.4650   -0.3260 C.2   276  LEU276      0.2287
    162  O         -7.8750   48.2720   -0.7970 O.2   276  LEU276     -0.2864
    163  CB        -7.8610   47.0510    2.0290 C.3   276  LEU276      0.0297
    164  CG        -8.7880   45.9250    1.5710 C.3   276  LEU276      0.0022
    165  CD1       -8.1630   44.5700    1.8290 C.3   276  LEU276      0.0001
    166  CD2      -10.1150   46.0450    2.2850 C.3   276  LEU276      0.0001
@<TRIPOS>BOND
     1   162   161    2
     2   161   160    1
     3   126   125    2
     4   157   156    1
     5   125   124    1
     6   160   159    1
     7   160   163    1
     8   156   158    1
     9   156   153    1
    10   133   134    1
    11   124   123    1
    12   124   127    1
    13   135   136    2
    14   135   134    1
    15   155   154    2
    16   164   165    1
    17   164   163    1
    18   164   166    1
    19   159   154   am
    20   154   153    1
    21   134   137    1
    22   127   128    1
    23   153   152    1
    24    51    52    1
    25    51    48    1
    26   152   143   am
    27   128   129   ar
    28   128   130   ar
    29   137   138    1
    30    50    49    2
    31   140   138    1
    32   118   119    2
    33   118   117    1
    34   129   131   ar
    35    48    49    1
    36    48    47    1
    37   138   139    1
    38   143   144    2
    39   143   142    1
    40   130   132   ar
    41    31    30    2
    42    63    62    1
    43    63    64    1
    44    30    29    1
    45    49    53   am
    46    36    37    1
    47   117   116    1
    48   117   120    1
    49    62    61    1
    50    85    83    1
    51   141   142    1
    52    84    83    1
    53    47    45   am
    54   142   145    1
    55    46    45    2
    56   131   132   ar
    57    39    38    2
    58    65    64    1
    59    45    44    1
    60    83    80    1
    61    32    29    1
    62    32    33    1
    63    53    54    1
    64   120   122    1
    65   120   121    1
    66    29    28    1
    67    38    37    1
    68    38    43   am
    69    37    40    1
    70    61    58    1
    71    58    57    1
    72    58    59    1
    73    57    55   am
    74    35    33    1
    75    41    40    1
    76    54    55    1
    77    55    56    2
    78    43    44    1
    79    22    21    2
    80    33    34    1
    81   145   146    1
    82    28    21   am
    83    40    42    1
    84   150   149    1
    85    21    20    1
    86    80    81    1
    87    80    79    1
    88   149   151    1
    89   149   148    2
    90   146   147    1
    91   147   148    1
    92    60    59    2
    93    59    66   am
    94    19    20    1
    95    81    82    2
    96   109   108    1
    97   109   110    2
    98    20    23    1
    99    79    74   am
   100   108   111    1
   101   108   107    1
   102    66    67    1
   103   112   111    1
   104   112   113    1
   105    74    75    2
   106    74    73    1
   107    23    24    1
   108    76    78    1
   109    76    73    1
   110    76    77    1
   111    72    73    1
   112    72    68   am
   113   113   115   ar
   114   113   114   ar
   115    67    68    1
   116    67    70    1
   117    68    69    2
   118    24    25    1
   119    70    71    1
   120    25    26    1
   121    16    17    1
   122    16    13    1
   123    15    14    2
   124    14    13    1
   125    17    18    1
   126    26    27    1
   127    13    12    1
   128   106   105    1
   129    18    12    1
   130   104   105   ar
   131   104   102   ar
   132   105   103   ar
   133   102   100   ar
   134    91    92    1
   135    91    90    1
   136   103   101   ar
   137    94    92   ar
   138    92    93   ar
   139    90    87    1
   140   100   101   ar
   141   100    99    1
   142    11     9    1
   143    99    96    1
   144     9    10    1
   145     9     8    2
   146    87    86    1
   147    87    88    1
   148    95    96    1
   149    95    88   am
   150     8     7    1
   151     7     6    1
   152    96    97    1
   153    88    89    2
   154    98    97    2
   155     6     5    1
   156     5     2    1
   157     2     3    1
   158     2     1    1
   159     3     4    2
