@<TRIPOS>MOLECULE
tmp/2ex8A00.pdb
 150 139 0 0 0
SMALL
GASTEIGER

@<TRIPOS>ATOM
      1  N         82.0200   -5.0670   50.7330 N.3    40  ALA40      -0.1231
      2  CA        83.0380   -4.6180   49.7700 C.3    40  ALA40       0.1694
      3  C         82.4250   -3.5010   48.9170 C.2    40  ALA40       0.2592
      4  O         81.6390   -2.7410   49.4400 O.2    40  ALA40      -0.2718
      5  CB        83.5710   -5.7670   48.9220 C.3    40  ALA40       0.0304
      6  N         82.7550   -3.4470   47.6290 N.am   41  SER41      -0.1952
      7  CA        82.3020   -2.3190   46.7580 C.3    41  SER41       0.1924
      8  C         80.7900   -2.2350   46.4960 C.2    41  SER41       0.2314
      9  O         80.3110   -1.2420   45.9200 O.2    41  SER41      -0.2863
     10  CB        83.0570   -2.3330   45.4320 C.3    41  SER41       0.2116
     11  OG        84.3760   -1.8130   45.5840 O.3    41  SER41      -0.2180
     12  N         78.9550    0.9650   47.4710 N.3    44  LYS44      -0.1245
     13  CA        78.8270    2.1290   46.5810 C.3    44  LYS44       0.1561
     14  C         77.3790    2.3210   46.1400 C.2    44  LYS44       0.2260
     15  O         76.9930    3.4380   45.7640 O.2    44  LYS44      -0.2867
     16  CB        79.7250    1.9670   45.3580 C.3    44  LYS44       0.0271
     17  CG        81.2160    1.9670   45.7150 C.3    44  LYS44       0.0035
     18  CD        82.0510    1.9910   44.4580 C.3    44  LYS44       0.0206
     19  CE        83.5460    2.2480   44.7200 C.3    44  LYS44       0.1093
     20  NZ        84.2450    0.9540   45.0360 N.3    44  LYS44      -0.1314
     21  N         94.6520    2.4330   44.3780 N.3   139  PHE139     -0.1241
     22  CA        93.2320    2.1120   44.6100 C.3   139  PHE139      0.1605
     23  C         92.7370    2.5420   45.9740 C.2   139  PHE139      0.2264
     24  O         91.5190    2.6850   46.1760 O.2   139  PHE139     -0.2867
     25  CB        92.8980    0.6380   44.3830 C.3   139  PHE139      0.0534
     26  CG        93.4540   -0.3120   45.4350 C.ar  139  PHE139     -0.0203
     27  CD1       92.8020   -0.4850   46.6580 C.ar  139  PHE139     -0.0042
     28  CD2       94.5800   -1.0640   45.1620 C.ar  139  PHE139     -0.0042
     29  CE1       93.3040   -1.3870   47.6140 C.ar  139  PHE139     -0.0003
     30  CE2       95.0860   -1.9610   46.0980 C.ar  139  PHE139     -0.0003
     31  CZ        94.4420   -2.1210   47.3170 C.ar  139  PHE139     -0.0000
     32  N         82.7150    1.4980   37.0890 N.3   284  LYS284     -0.1231
     33  CA        84.1160    1.1180   37.1760 C.3   284  LYS284      0.1693
     34  C         84.5210    0.7630   38.5950 C.2   284  LYS284      0.2592
     35  O         85.6080    0.2040   38.8060 O.2   284  LYS284     -0.2718
     36  CB        84.9950    2.2910   36.6930 C.3   284  LYS284      0.0285
     37  CG        84.7130    2.7050   35.2430 C.3   284  LYS284      0.0035
     38  CD        85.2120    1.6450   34.2830 C.3   284  LYS284      0.0206
     39  CE        86.6060    1.9780   33.7420 C.3   284  LYS284      0.1093
     40  NZ        86.5210    2.4240   32.3150 N.3   284  LYS284     -0.1314
     41  N         83.6570    1.0660   39.5550 N.am  285  SER285     -0.1952
     42  CA        83.9200    0.8920   40.9990 C.3   285  SER285      0.1924
     43  C         85.0250    1.8310   41.4790 C.2   285  SER285      0.2314
     44  O         86.0310    1.3840   42.0400 O.2   285  SER285     -0.2863
     45  CB        84.2580   -0.5540   41.3850 C.3   285  SER285      0.2116
     46  OG        83.7880   -0.7790   42.7180 O.3   285  SER285     -0.2180
     47  N         86.8440    3.9830   43.7000 N.3   287  ASN287     -0.1240
     48  CA        86.8780    4.1930   45.1590 C.3   287  ASN287      0.1653
     49  C         86.9950    5.6540   45.5580 C.2   287  ASN287      0.2266
     50  O         86.4390    6.0820   46.5520 O.2   287  ASN287     -0.2867
     51  CB        88.0660    3.4420   45.7530 C.3   287  ASN287      0.1155
     52  CG        87.9220    1.9190   45.6860 C.2   287  ASN287      0.2627
     53  OD1       86.8100    1.3600   45.6710 O.2   287  ASN287     -0.2716
     54  ND2       89.0660    1.2320   45.6850 N.am  287  ASN287     -0.0877
     55  N         83.2450    3.6970   49.6820 N.3   336  SER336     -0.1202
     56  CA        83.7600    2.7990   48.6480 C.3   336  SER336      0.2020
     57  C         83.5030    1.3250   48.9290 C.2   336  SER336      0.2619
     58  O         83.5060    0.5120   47.9980 O.2   336  SER336     -0.2717
     59  CB        85.2640    3.0170   48.4320 C.3   336  SER336      0.2103
     60  OG        85.9520    2.8030   49.6660 O.3   336  SER336     -0.2182
     61  N         83.3620    0.9920   50.2170 N.am  337  GLY337     -0.1942
     62  CA        83.2960   -0.3930   50.6930 C.3   337  GLY337      0.2014
     63  C         84.6650   -1.0280   50.9550 C.2   337  GLY337      0.2638
     64  O         84.7440   -2.2160   51.2190 O.2   337  GLY337     -0.2714
     65  N         85.7500   -0.2440   50.8810 N.am  338  LEU338     -0.1977
     66  CA        87.0990   -0.7980   51.1590 C.3   338  LEU338      0.1596
     67  C         87.2550   -1.2420   52.6020 C.2   338  LEU338      0.2287
     68  O         87.9650   -2.2210   52.8870 O.2   338  LEU338     -0.2864
     69  CB        88.1840    0.2400   50.8620 C.3   338  LEU338      0.0297
     70  CG        88.4410    0.4930   49.3990 C.3   338  LEU338      0.0022
     71  CD1       89.4230    1.6620   49.3640 C.3   338  LEU338      0.0001
     72  CD2       89.0430   -0.7660   48.7680 C.3   338  LEU338      0.0001
     73  N         87.1880   -2.8380   56.1550 N.3   340  ARG340     -0.1245
     74  CA        86.7640   -4.1300   56.7060 C.3   340  ARG340      0.1563
     75  C         85.8610   -3.9510   57.9200 C.2   340  ARG340      0.2260
     76  O         85.4090   -4.9510   58.5190 O.2   340  ARG340     -0.2867
     77  CB        87.9880   -5.0190   57.0210 C.3   340  ARG340      0.0307
     78  CG        89.0330   -5.1900   55.8770 C.3   340  ARG340      0.0489
     79  CD        88.5050   -5.4340   54.4600 C.3   340  ARG340      0.2205
     80  NE        89.5650   -5.9470   53.5840 N.pl3 340  ARG340     -0.0865
     81  CZ        90.3560   -5.2390   52.7540 C.cat 340  ARG340      0.5346
     82  NH1       91.2720   -5.9150   52.0590 N.pl3 340  ARG340      0.1354
     83  NH2       90.2440   -3.8920   52.5890 N.pl3 340  ARG340      0.1354
     84  N         82.2930   -3.2090   35.2800 N.3   377  SER377     -0.1217
     85  CA        82.8900   -4.4030   35.8960 C.3   377  SER377      0.1889
     86  C         82.2900   -5.7280   35.4440 C.2   377  SER377      0.2288
     87  O         82.8660   -6.7760   35.7240 O.2   377  SER377     -0.2866
     88  CB        82.7280   -4.3260   37.4190 C.3   377  SER377      0.2089
     89  OG        82.9770   -3.0110   37.8610 O.3   377  SER377     -0.2183
     90  N         82.1530  -10.7470   32.8800 N.3   381  ARG381     -0.1245
     91  CA        81.9300  -11.6490   34.0290 C.3   381  ARG381      0.1563
     92  C         81.6250  -13.0630   33.5620 C.2   381  ARG381      0.2260
     93  O         80.5040  -13.3500   33.1530 O.2   381  ARG381     -0.2867
     94  CB        80.7940  -11.1330   34.9170 C.3   381  ARG381      0.0307
     95  CG        80.6880  -11.8480   36.2310 C.3   381  ARG381      0.0489
     96  CD        81.4050  -11.1450   37.3570 C.3   381  ARG381      0.2205
     97  NE        81.1970  -11.7920   38.6540 N.pl3 381  ARG381     -0.0865
     98  CZ        81.6120  -11.2730   39.7990 C.cat 381  ARG381      0.5346
     99  NH1       81.4010  -11.9190   40.9340 N.pl3 381  ARG381      0.1354
    100  NH2       82.2710  -10.1230   39.8180 N.pl3 381  ARG381      0.1354
    101  N         76.1120   -4.3670   40.8120 N.3   396  LYS396     -0.1231
    102  CA        77.3770   -3.8320   41.3420 C.3   396  LYS396      0.1693
    103  C         78.2160   -4.9810   41.9130 C.2   396  LYS396      0.2592
    104  O         77.7210   -5.7790   42.6900 O.2   396  LYS396     -0.2718
    105  CB        77.0870   -2.8160   42.4420 C.3   396  LYS396      0.0285
    106  CG        78.3130   -2.0860   42.9860 C.3   396  LYS396      0.0035
    107  CD        78.9260   -1.1040   41.9650 C.3   396  LYS396      0.0206
    108  CE        80.3330   -0.6230   42.4140 C.3   396  LYS396      0.1093
    109  NZ        81.3510   -1.7090   42.2620 N.3   396  LYS396     -0.1314
    110  N         79.4650   -5.0600   41.4970 N.am  397  THR397     -0.1953
    111  CA        80.3850   -6.0700   42.0310 C.3   397  THR397      0.1897
    112  C         81.0430   -5.5280   43.2970 C.2   397  THR397      0.2313
    113  O         81.0730   -4.3270   43.5480 O.2   397  THR397     -0.2863
    114  CB        81.4700   -6.3890   41.0150 C.3   397  THR397      0.1794
    115  OG1       82.0350   -5.1580   40.5350 O.3   397  THR397     -0.2208
    116  CG2       80.8610   -6.9530   39.7620 C.3   397  THR397      0.0378
    117  N         84.7420   -6.7260   45.4870 N.3   399  SER399     -0.1202
    118  CA        85.8170   -7.7280   45.6120 C.3   399  SER399      0.2020
    119  C         86.8930   -7.2060   46.5300 C.2   399  SER399      0.2619
    120  O         87.3570   -6.0640   46.3630 O.2   399  SER399     -0.2717
    121  CB        86.4450   -8.0260   44.2500 C.3   399  SER399      0.2103
    122  OG        85.4080   -8.4090   43.3480 O.3   399  SER399     -0.2182
    123  N         87.2630   -8.0470   47.4970 N.am  400  LEU400     -0.1965
    124  CA        88.4340   -7.8360   48.3280 C.3   400  LEU400      0.1728
    125  C         89.0620   -9.2260   48.4340 C.2   400  LEU400      0.2616
    126  O         88.4410  -10.2230   48.0250 O.2   400  LEU400     -0.2715
    127  CB        88.0340   -7.3380   49.7170 C.3   400  LEU400      0.0311
    128  CG        87.1390   -6.1080   49.9110 C.3   400  LEU400      0.0022
    129  CD1       86.5770   -6.1020   51.3220 C.3   400  LEU400      0.0001
    130  CD2       87.9110   -4.8050   49.6590 C.3   400  LEU400      0.0001
    131  N         90.2860   -9.3040   48.9490 N.am  401  GLN401     -0.1977
    132  CA        90.8760  -10.6120   49.2450 C.3   401  GLN401      0.1601
    133  C         89.8140  -11.4290   49.9780 C.2   401  GLN401      0.2287
    134  O         89.3760  -11.0430   51.0560 O.2   401  GLN401     -0.2864
    135  CB        92.1160  -10.4300   50.1420 C.3   401  GLN401      0.0394
    136  CG        92.8120  -11.7390   50.6010 C.3   401  GLN401      0.0908
    137  CD        94.1520  -11.4940   51.3550 C.2   401  GLN401      0.2608
    138  OE1       94.5430  -12.3000   52.2280 O.2   401  GLN401     -0.2717
    139  NE2       94.8590  -10.4080   50.9990 N.am  401  GLN401     -0.0878
    140  N         89.9140  -18.2600   40.9060 N.3   438  ARG438     -0.1245
    141  CA        88.6260  -17.7300   40.4690 C.3   438  ARG438      0.1563
    142  C         87.7360  -18.7300   39.7220 C.2   438  ARG438      0.2260
    143  O         86.5850  -18.4130   39.4390 O.2   438  ARG438     -0.2867
    144  CB        88.7960  -16.4390   39.6550 C.3   438  ARG438      0.0307
    145  CG        88.5170  -15.1370   40.4310 C.3   438  ARG438      0.0489
    146  CD        87.9190  -14.0260   39.5500 C.3   438  ARG438      0.2205
    147  NE        87.3430  -12.9090   40.3100 N.pl3 438  ARG438     -0.0865
    148  CZ        86.4250  -12.0510   39.8390 C.cat 438  ARG438      0.5346
    149  NH1       85.9780  -11.0650   40.6130 N.pl3 438  ARG438      0.1354
    150  NH2       85.9510  -12.1730   38.6040 N.pl3 438  ARG438      0.1354
@<TRIPOS>BOND
     1    40    39    1
     2    90    91    1
     3    93    92    2
     4    92    91    1
     5    39    38    1
     6    91    94    1
     7    38    37    1
     8    94    95    1
     9    37    36    1
    10    84    85    1
    11    86    87    2
    12    86    85    1
    13    85    88    1
    14    95    96    1
    15    36    33    1
    16    32    33    1
    17    33    34    1
    18    96    97    1
    19    88    89    1
    20    34    35    2
    21    34    41   am
    22   150   148    1
    23    97    98    2
    24   143   142    2
    25   146   147    1
    26   146   145    1
    27    41    42    1
    28   144   145    1
    29   144   141    1
    30   142   141    1
    31   116   114    1
    32    98   100    1
    33    98    99    1
    34   148   147    2
    35   148   149    1
    36   141   140    1
    37   115   114    1
    38   101   102    1
    39    42    45    1
    40    42    43    1
    41   114   111    1
    42   102   103    1
    43   102   105    1
    44    45    46    1
    45    43    44    2
    46   110   103   am
    47   110   111    1
    48   103   104    2
    49   107   108    1
    50   107   106    1
    51   111   112    1
    52   109   108    1
    53   105   106    1
    54   112   113    2
    55   122   121    1
    56    47    48    1
    57   121   118    1
    58    21    22    1
    59    25    22    1
    60    25    26    1
    61    18    19    1
    62    18    17    1
    63    22    23    1
    64    19    20    1
    65    48    49    1
    66    48    51    1
    67    28    26   ar
    68    28    30   ar
    69    16    17    1
    70    16    13    1
    71    10    11    1
    72    10     7    1
    73    26    27   ar
    74   117   118    1
    75    49    50    2
    76   118   119    1
    77    53    52    2
    78    54    52   am
    79    52    51    1
    80    15    14    2
    81     9     8    2
    82    23    24    2
    83    30    31   ar
    84    14    13    1
    85   120   119    2
    86     8     7    1
    87   119   123   am
    88    13    12    1
    89    27    29   ar
    90     7     6    1
    91    31    29   ar
    92   123   124    1
    93     6     3   am
    94    58    57    2
    95   126   125    2
    96   124   125    1
    97   124   127    1
    98    59    56    1
    99    59    60    1
   100   125   131   am
   101    56    57    1
   102    56    55    1
   103    72    70    1
   104     3     4    2
   105     3     2    1
   106     5     2    1
   107    57    61   am
   108   131   132    1
   109   132   133    1
   110   132   135    1
   111    71    70    1
   112    70    69    1
   113   130   128    1
   114   127   128    1
   115     2     1    1
   116   128   129    1
   117   133   134    2
   118   135   136    1
   119    61    62    1
   120   136   137    1
   121    62    63    1
   122    69    66    1
   123    65    63   am
   124    65    66    1
   125    63    64    2
   126   139   137   am
   127    66    67    1
   128   137   138    2
   129    82    81    1
   130    83    81    1
   131    67    68    2
   132    81    80    2
   133    80    79    1
   134    79    78    1
   135    78    77    1
   136    73    74    1
   137    74    77    1
   138    74    75    1
   139    75    76    2
