@<TRIPOS>MOLECULE
tmp/2ex9A00.pdb
 118 109 0 0 0
SMALL
GASTEIGER

@<TRIPOS>ATOM
      1  N         81.9810   -5.1400   50.6580 N.3    34  ALA34      -0.1231
      2  CA        82.9910   -4.7200   49.6790 C.3    34  ALA34       0.1694
      3  C         82.3670   -3.6390   48.7890 C.2    34  ALA34       0.2592
      4  O         81.5890   -2.8720   49.2660 O.2    34  ALA34      -0.2718
      5  CB        83.5500   -5.9180   48.8890 C.3    34  ALA34       0.0304
      6  N         82.7170   -3.5640   47.5120 N.am   35  SER35      -0.1952
      7  CA        82.2350   -2.4410   46.6620 C.3    35  SER35       0.1924
      8  C         80.7110   -2.3620   46.4040 C.2    35  SER35       0.2314
      9  O         80.2480   -1.3960   45.7890 O.2    35  SER35      -0.2863
     10  CB        82.9990   -2.4610   45.3260 C.3    35  SER35       0.2116
     11  OG        84.2680   -1.8330   45.5100 O.3    35  SER35      -0.2180
     12  N         97.8130   -1.3530   52.0590 N.3   128  ASP128     -0.1239
     13  CA        97.3580   -0.9980   50.7120 C.3   128  ASP128      0.1674
     14  C         97.3540    0.5190   50.5230 C.2   128  ASP128      0.2266
     15  O         97.0170    0.9960   49.4280 O.2   128  ASP128     -0.2867
     16  CB        95.9560   -1.5460   50.4780 C.3   128  ASP128      0.1410
     17  CG        95.9350   -3.0370   50.3260 C.2   128  ASP128      0.3668
     18  OD1       96.8720   -3.6010   49.7140 O.co2 128  ASP128     -0.2456
     19  OD2       94.9990   -3.7280   50.7820 O.co2 128  ASP128     -0.2456
     20  N         94.5100    2.2460   44.2500 N.3   133  PHE133     -0.1241
     21  CA        93.0990    1.9560   44.5070 C.3   133  PHE133      0.1605
     22  C         92.6840    2.3750   45.9090 C.2   133  PHE133      0.2264
     23  O         91.4990    2.5740   46.1950 O.2   133  PHE133     -0.2867
     24  CB        92.7300    0.4770   44.2750 C.3   133  PHE133      0.0534
     25  CG        93.2750   -0.4850   45.3160 C.ar  133  PHE133     -0.0203
     26  CD1       92.5740   -0.7070   46.5080 C.ar  133  PHE133     -0.0042
     27  CD2       94.4390   -1.1920   45.0740 C.ar  133  PHE133     -0.0042
     28  CE1       93.0570   -1.6120   47.4660 C.ar  133  PHE133     -0.0003
     29  CE2       94.9430   -2.0670   46.0290 C.ar  133  PHE133     -0.0003
     30  CZ        94.2220   -2.2930   47.2140 C.ar  133  PHE133     -0.0000
     31  N         82.6220    1.4370   36.9090 N.3   278  LYS278     -0.1231
     32  CA        84.0260    1.0800   37.0610 C.3   278  LYS278      0.1693
     33  C         84.4280    0.7250   38.4900 C.2   278  LYS278      0.2592
     34  O         85.5690    0.2870   38.7230 O.2   278  LYS278     -0.2718
     35  CB        84.8910    2.2610   36.6010 C.3   278  LYS278      0.0285
     36  CG        84.8840    2.4260   35.0900 C.3   278  LYS278      0.0035
     37  CD        85.9840    3.3760   34.6170 C.3   278  LYS278      0.0206
     38  CE        85.8500    3.6560   33.0860 C.3   278  LYS278      0.1093
     39  NZ        86.1570    2.3970   32.2930 N.3   278  LYS278     -0.1314
     40  N         83.5150    0.9300   39.4360 N.am  279  SER279     -0.1952
     41  CA        83.7760    0.7280   40.8910 C.3   279  SER279      0.1924
     42  C         84.8620    1.6680   41.3850 C.2   279  SER279      0.2314
     43  O         85.8480    1.2190   41.9880 O.2   279  SER279     -0.2863
     44  CB        84.1680   -0.7110   41.2570 C.3   279  SER279      0.2116
     45  OG        83.7730   -0.9320   42.6300 O.3   279  SER279     -0.2180
     46  N         86.6080    3.8100   43.5750 N.3   281  ASN281     -0.1240
     47  CA        86.7070    4.1120   45.0030 C.3   281  ASN281      0.1653
     48  C         86.8390    5.6030   45.3180 C.2   281  ASN281      0.2266
     49  O         86.3140    6.0930   46.3180 O.2   281  ASN281     -0.2867
     50  CB        87.9190    3.3930   45.6060 C.3   281  ASN281      0.1155
     51  CG        87.8010    1.8760   45.6270 C.2   281  ASN281      0.2627
     52  OD1       86.7070    1.2750   45.5030 O.2   281  ASN281     -0.2716
     53  ND2       88.9430    1.2190   45.8000 N.am  281  ASN281     -0.0877
     54  N         83.1490    3.6920   49.4830 N.3   330  SER330     -0.1202
     55  CA        83.6690    2.7990   48.4270 C.3   330  SER330      0.2020
     56  C         83.4540    1.2810   48.6660 C.2   330  SER330      0.2619
     57  O         83.4830    0.4730   47.7230 O.2   330  SER330     -0.2717
     58  CB        85.1850    3.0210   48.2340 C.3   330  SER330      0.2103
     59  OG        85.8300    2.8570   49.4990 O.3   330  SER330     -0.2182
     60  N         83.3240    0.9010   49.9460 N.am  331  GLY331     -0.1942
     61  CA        83.2640   -0.4960   50.3720 C.3   331  GLY331      0.2014
     62  C         84.6400   -1.0840   50.6900 C.2   331  GLY331      0.2638
     63  O         84.7730   -2.2560   51.0140 O.2   331  GLY331     -0.2714
     64  N         85.6710   -0.2440   50.6250 N.am  332  LEU332     -0.1977
     65  CA        87.0360   -0.6860   50.9130 C.3   332  LEU332      0.1596
     66  C         87.1900   -1.1280   52.3700 C.2   332  LEU332      0.2287
     67  O         87.8880   -2.1160   52.6680 O.2   332  LEU332     -0.2864
     68  CB        88.0080    0.4690   50.5830 C.3   332  LEU332      0.0297
     69  CG        89.5120    0.2840   50.6350 C.3   332  LEU332      0.0022
     70  CD1       89.9810   -0.9870   49.9070 C.3   332  LEU332      0.0001
     71  CD2       90.1880    1.5240   50.0230 C.3   332  LEU332      0.0001
     72  N         87.1400   -2.7960   55.9230 N.3   334  ARG334     -0.1245
     73  CA        86.7550   -4.1060   56.4920 C.3   334  ARG334      0.1563
     74  C         85.7970   -3.9560   57.6740 C.2   334  ARG334      0.2260
     75  O         85.3400   -4.9590   58.2440 O.2   334  ARG334     -0.2867
     76  CB        87.9960   -4.9410   56.8880 C.3   334  ARG334      0.0307
     77  CG        89.0210   -5.2260   55.7540 C.3   334  ARG334      0.0489
     78  CD        88.4650   -5.3570   54.3140 C.3   334  ARG334      0.2205
     79  NE        89.4910   -5.9420   53.4310 N.pl3 334  ARG334     -0.0865
     80  CZ        90.2840   -5.2830   52.5690 C.cat 334  ARG334      0.5346
     81  NH1       90.1940   -3.9510   52.3700 N.pl3 334  ARG334      0.1354
     82  NH2       91.1530   -5.9980   51.8550 N.pl3 334  ARG334      0.1354
     83  N         82.1110   -3.4220   35.1530 N.3   371  SER371     -0.1217
     84  CA        82.6910   -4.5810   35.7930 C.3   371  SER371      0.1889
     85  C         82.1270   -5.9000   35.2900 C.2   371  SER371      0.2288
     86  O         82.7510   -6.9320   35.5070 O.2   371  SER371     -0.2866
     87  CB        82.5040   -4.4770   37.3140 C.3   371  SER371      0.2089
     88  OG        82.7630   -3.1380   37.7320 O.3   371  SER371     -0.2183
     89  N         79.3560   -5.1050   41.4770 N.3   391  THR391     -0.1218
     90  CA        80.2620   -6.1200   42.0430 C.3   391  THR391      0.1862
     91  C         80.8580   -5.6170   43.3550 C.2   391  THR391      0.2287
     92  O         80.8410   -4.4460   43.6670 O.2   391  THR391     -0.2866
     93  CB        81.4280   -6.4350   41.1070 C.3   391  THR391      0.1770
     94  OG1       82.1150   -5.2170   40.7640 O.3   391  THR391     -0.2211
     95  CG2       80.9770   -6.9630   39.7830 C.3   391  THR391      0.0375
     96  N         84.4760   -6.8230   45.2480 N.3   393  SER393     -0.1202
     97  CA        85.6180   -7.7540   45.1920 C.3   393  SER393      0.2020
     98  C         86.7110   -7.3130   46.1550 C.2   393  SER393      0.2619
     99  O         87.1770   -6.1820   46.0810 O.2   393  SER393     -0.2717
    100  CB        86.1910   -7.8090   43.7730 C.3   393  SER393      0.2103
    101  OG        85.1430   -7.8390   42.7930 O.3   393  SER393     -0.2182
    102  N         87.0810   -8.2060   47.0680 N.am  394  LEU394     -0.1965
    103  CA        88.1690   -7.9980   48.0110 C.3   394  LEU394      0.1728
    104  C         88.7900   -9.3870   48.1680 C.2   394  LEU394      0.2616
    105  O         88.2450  -10.3750   47.6290 O.2   394  LEU394     -0.2715
    106  CB        87.6570   -7.4800   49.3620 C.3   394  LEU394      0.0311
    107  CG        87.0900   -6.0640   49.5610 C.3   394  LEU394      0.0022
    108  CD1       86.6390   -5.8600   50.9880 C.3   394  LEU394      0.0001
    109  CD2       88.1260   -5.0160   49.2110 C.3   394  LEU394      0.0001
    110  N         89.9310   -9.4730   48.8570 N.am  395  GLN395     -0.1977
    111  CA        90.6300  -10.7660   49.0220 C.3   395  GLN395      0.1601
    112  C         89.6150  -11.7810   49.5190 C.2   395  GLN395      0.2287
    113  O         89.1310  -11.6600   50.6430 O.2   395  GLN395     -0.2864
    114  CB        91.7960  -10.6190   50.0180 C.3   395  GLN395      0.0394
    115  CG        92.5710  -11.8960   50.3700 C.3   395  GLN395      0.0908
    116  CD        93.7390  -11.6320   51.3500 C.2   395  GLN395      0.2608
    117  OE1       93.8740  -12.3240   52.3820 O.2   395  GLN395     -0.2717
    118  NE2       94.5870  -10.6400   51.0230 N.am  395  GLN395     -0.0878
@<TRIPOS>BOND
     1    39    38    1
     2    38    37    1
     3    37    36    1
     4    36    35    1
     5    83    84    1
     6    85    86    2
     7    85    84    1
     8    84    87    1
     9    35    32    1
    10    31    32    1
    11    32    33    1
    12    87    88    1
    13    33    34    2
    14    33    40   am
    15    40    41    1
    16    95    93    1
    17    94    93    1
    18    41    44    1
    19    41    42    1
    20    93    90    1
    21    44    45    1
    22    42    43    2
    23    89    90    1
    24    90    91    1
    25   101   100    1
    26    91    92    2
    27    46    47    1
    28   100    97    1
    29    20    21    1
    30    24    21    1
    31    24    25    1
    32    21    22    1
    33    47    48    1
    34    47    50    1
    35    27    25   ar
    36    27    29   ar
    37    97    96    1
    38    97    98    1
    39    25    26   ar
    40    48    49    2
    41    10    11    1
    42    10     7    1
    43    52    51    2
    44    50    51    1
    45    51    53   am
    46     9     8    2
    47    22    23    2
    48    29    30   ar
    49    99    98    2
    50    98   102   am
    51     8     7    1
    52    26    28   ar
    53     7     6    1
    54   102   103    1
    55    30    28   ar
    56     6     3   am
    57   105   104    2
    58    57    56    2
    59   103   104    1
    60   103   106    1
    61   104   110   am
    62    58    55    1
    63    58    59    1
    64    55    56    1
    65    55    54    1
    66    56    60   am
    67     3     4    2
    68     3     2    1
    69   110   111    1
    70     5     2    1
    71   111   112    1
    72   111   114    1
    73   109   107    1
    74   106   107    1
    75    15    14    2
    76   112   113    2
    77   107   108    1
    78     2     1    1
    79    18    17   ar
    80    70    69    1
    81    60    61    1
    82   114   115    1
    83    71    69    1
    84    17    16    1
    85    17    19   ar
    86   115   116    1
    87    61    62    1
    88    16    13    1
    89    14    13    1
    90    68    69    1
    91    68    65    1
    92    64    62   am
    93    64    65    1
    94    62    63    2
    95    13    12    1
    96    65    66    1
    97   118   116   am
    98   116   117    2
    99    82    80    1
   100    66    67    2
   101    81    80    1
   102    80    79    2
   103    79    78    1
   104    78    77    1
   105    77    76    1
   106    72    73    1
   107    73    76    1
   108    73    74    1
   109    74    75    2
