@<TRIPOS>MOLECULE
tmp/2exaA00.pdb
 110 101 0 0 0
SMALL
GASTEIGER

@<TRIPOS>ATOM
      1  N         81.9920   -5.2390   50.4840 N.3    36  ALA36      -0.1231
      2  CA        83.0080   -4.8240   49.5200 C.3    36  ALA36       0.1694
      3  C         82.3800   -3.7560   48.6250 C.2    36  ALA36       0.2592
      4  O         81.6240   -2.9040   49.1320 O.2    36  ALA36      -0.2718
      5  CB        83.5330   -6.0350   48.7130 C.3    36  ALA36       0.0304
      6  N         82.6660   -3.7790   47.3190 N.am   37  SER37      -0.1952
      7  CA        82.2420   -2.6480   46.4450 C.3    37  SER37       0.1924
      8  C         80.7270   -2.5260   46.2300 C.2    37  SER37       0.2314
      9  O         80.2920   -1.5540   45.6600 O.2    37  SER37      -0.2863
     10  CB        82.9480   -2.6970   45.0860 C.3    37  SER37       0.2116
     11  OG        84.3450   -2.3830   45.2320 O.3    37  SER37      -0.2180
     12  N         78.9910    0.7130   47.1430 N.3    40  LYS40      -0.1245
     13  CA        78.8160    1.8500   46.2220 C.3    40  LYS40       0.1561
     14  C         77.3460    2.0660   45.8000 C.2    40  LYS40       0.2260
     15  O         76.9590    3.1880   45.4570 O.2    40  LYS40      -0.2867
     16  CB        79.7300    1.7010   44.9980 C.3    40  LYS40       0.0271
     17  CG        81.2240    1.8140   45.3760 C.3    40  LYS40       0.0035
     18  CD        82.0790    1.7240   44.1010 C.3    40  LYS40       0.0206
     19  CE        83.5540    1.9650   44.3900 C.3    40  LYS40       0.1093
     20  NZ        84.1930    0.7220   44.8640 N.3    40  LYS40      -0.1314
     21  N         94.6130    2.3780   43.9790 N.3   135  PHE135     -0.1241
     22  CA        93.2060    2.0440   44.2080 C.3   135  PHE135      0.1605
     23  C         92.7310    2.4400   45.5980 C.2   135  PHE135      0.2264
     24  O         91.5280    2.4900   45.8600 O.2   135  PHE135     -0.2867
     25  CB        92.9120    0.5610   43.9110 C.3   135  PHE135      0.0534
     26  CG        93.4130   -0.4000   44.9650 C.ar  135  PHE135     -0.0203
     27  CD1       92.6510   -0.6420   46.1260 C.ar  135  PHE135     -0.0042
     28  CD2       94.6160   -1.0770   44.7970 C.ar  135  PHE135     -0.0042
     29  CE1       93.1100   -1.5170   47.1140 C.ar  135  PHE135     -0.0003
     30  CE2       95.0720   -1.9720   45.7870 C.ar  135  PHE135     -0.0003
     31  CZ        94.3170   -2.1830   46.9380 C.ar  135  PHE135     -0.0000
     32  N         82.8100    1.3420   36.8740 N.3   280  LYS280     -0.1231
     33  CA        84.2420    1.0370   37.0640 C.3   280  LYS280      0.1693
     34  C         84.6560    0.7520   38.5140 C.2   280  LYS280      0.2592
     35  O         85.8230    0.4220   38.7680 O.2   280  LYS280     -0.2718
     36  CB        85.1150    2.1910   36.5260 C.3   280  LYS280      0.0285
     37  CG        84.8910    2.5930   35.0630 C.3   280  LYS280      0.0035
     38  CD        84.9550    1.4140   34.0940 C.3   280  LYS280      0.0206
     39  CE        85.8010    1.7490   32.8360 C.3   280  LYS280      0.1093
     40  NZ        85.6140    3.1480   32.3260 N.3   280  LYS280     -0.1314
     41  N         83.7130    0.8600   39.4510 N.am  281  SER281     -0.1952
     42  CA        83.9590    0.6240   40.8990 C.3   281  SER281      0.1924
     43  C         85.0560    1.5800   41.3380 C.2   281  SER281      0.2314
     44  O         86.0880    1.1640   41.9030 O.2   281  SER281     -0.2863
     45  CB        84.3930   -0.8170   41.2380 C.3   281  SER281      0.2116
     46  OG        83.9520   -1.1630   42.5480 O.3   281  SER281     -0.2180
     47  N         86.8480    3.9010   43.5130 N.3   283  ASN283     -0.1240
     48  CA        86.8650    4.1550   44.9530 C.3   283  ASN283      0.1653
     49  C         86.9590    5.6420   45.2590 C.2   283  ASN283      0.2266
     50  O         86.3900    6.1220   46.2340 O.2   283  ASN283     -0.2867
     51  CB        88.0390    3.4220   45.5960 C.3   283  ASN283      0.1155
     52  CG        87.9140    1.9310   45.4960 C.2   283  ASN283      0.2627
     53  OD1       86.7920    1.3720   45.4510 O.2   283  ASN283     -0.2716
     54  ND2       89.0530    1.2570   45.4410 N.am  283  ASN283     -0.0877
     55  N         83.1610    3.5810   49.3590 N.3   332  SER332     -0.1202
     56  CA        83.6830    2.6700   48.3260 C.3   332  SER332      0.2020
     57  C         83.5310    1.1770   48.6160 C.2   332  SER332      0.2619
     58  O         83.5510    0.3530   47.6810 O.2   332  SER332     -0.2717
     59  CB        85.1870    2.9390   48.1170 C.3   332  SER332      0.2103
     60  OG        85.8740    2.8170   49.3640 O.3   332  SER332     -0.2182
     61  N         83.4930    0.8360   49.9080 N.am  333  GLY333     -0.1942
     62  CA        83.5060   -0.5480   50.3390 C.3   333  GLY333      0.2014
     63  C         84.9050   -1.0310   50.7090 C.2   333  GLY333      0.2638
     64  O         85.0780   -2.2100   51.0410 O.2   333  GLY333     -0.2714
     65  N         85.8900   -0.1270   50.6490 N.am  334  LEU334     -0.1977
     66  CA        87.2740   -0.4930   51.0160 C.3   334  LEU334      0.1596
     67  C         87.3560   -0.9340   52.4760 C.2   334  LEU334      0.2287
     68  O         88.1120   -1.8500   52.8280 O.2   334  LEU334     -0.2864
     69  CB        88.2290    0.6960   50.7860 C.3   334  LEU334      0.0297
     70  CG        88.7560    0.8220   49.3540 C.3   334  LEU334      0.0022
     71  CD1       89.4530    2.1880   49.2160 C.3   334  LEU334      0.0001
     72  CD2       89.7440   -0.3310   48.9910 C.3   334  LEU334      0.0001
     73  N         87.1170   -2.6830   55.9340 N.3   336  ARG336     -0.1245
     74  CA        86.7460   -3.9840   56.4700 C.3   336  ARG336      0.1563
     75  C         85.7620   -3.8290   57.6290 C.2   336  ARG336      0.2260
     76  O         85.2910   -4.8330   58.1760 O.2   336  ARG336     -0.2867
     77  CB        87.9940   -4.7710   56.9000 C.3   336  ARG336      0.0307
     78  CG        88.9770   -5.1570   55.7580 C.3   336  ARG336      0.0489
     79  CD        88.4070   -5.2390   54.3130 C.3   336  ARG336      0.2205
     80  NE        89.3890   -5.8230   53.3900 N.pl3 336  ARG336     -0.0865
     81  CZ        90.0610   -5.1840   52.4260 C.cat 336  ARG336      0.5346
     82  NH1       89.8730   -3.8870   52.1600 N.pl3 336  ARG336      0.1354
     83  NH2       90.9290   -5.8800   51.6900 N.pl3 336  ARG336      0.1354
     84  N         82.0300   -4.2780   35.2260 N.3   373  SER373     -0.1217
     85  CA        82.6890   -5.4380   35.6990 C.3   373  SER373      0.1889
     86  C         81.9240   -6.6820   35.2650 C.2   373  SER373      0.2288
     87  O         82.3570   -7.7910   35.5620 O.2   373  SER373     -0.2866
     88  CB        82.7520   -5.3310   37.2170 C.3   373  SER373      0.2089
     89  OG        82.8500   -3.9500   37.5680 O.3   373  SER373     -0.2183
     90  N         79.2640   -5.4880   41.3620 N.3   393  THR393     -0.1218
     91  CA        80.1180   -6.5210   41.9700 C.3   393  THR393      0.1862
     92  C         80.7570   -5.9990   43.2630 C.2   393  THR393      0.2287
     93  O         80.9240   -4.7880   43.4640 O.2   393  THR393     -0.2866
     94  CB        81.2500   -6.9430   41.0170 C.3   393  THR393      0.1770
     95  OG1       81.9840   -5.7650   40.6300 O.3   393  THR393     -0.2211
     96  CG2       80.7170   -7.5250   39.7100 C.3   393  THR393      0.0375
     97  N         84.2560   -7.4490   44.8860 N.3   395  SER395     -0.1202
     98  CA        85.2330   -8.5250   44.6160 C.3   395  SER395      0.2020
     99  C         86.5030   -8.2230   45.3730 C.2   395  SER395      0.2618
    100  O         87.0840   -7.1480   45.2340 O.2   395  SER395     -0.2717
    101  CB        85.5430   -8.6550   43.1170 C.3   395  SER395      0.2103
    102  OG        84.3770   -9.0300   42.3790 O.3   395  SER395     -0.2182
    103  N         86.8910   -9.1820   46.1970 N.am  396  LEU396     -0.1979
    104  CA        88.0150   -9.0840   47.0970 C.3   396  LEU396      0.1596
    105  C         88.6800  -10.4610   47.0970 C.2   396  LEU396      0.2287
    106  O         88.1640  -11.4000   46.4940 O.2   396  LEU396     -0.2864
    107  CB        87.4870   -8.7770   48.4970 C.3   396  LEU396      0.0297
    108  CG        87.7970   -7.5070   49.2630 C.3   396  LEU396      0.0022
    109  CD1       86.5850   -6.9390   49.9780 C.3   396  LEU396      0.0001
    110  CD2       88.8880   -7.8920   50.2810 C.3   396  LEU396      0.0001
@<TRIPOS>BOND
     1    40    39    1
     2    39    38    1
     3    38    37    1
     4    37    36    1
     5    84    85    1
     6    86    87    2
     7    86    85    1
     8    85    88    1
     9    36    33    1
    10    32    33    1
    11    33    34    1
    12    88    89    1
    13    34    35    2
    14    34    41   am
    15    41    42    1
    16    96    94    1
    17    95    94    1
    18    42    45    1
    19    42    43    1
    20    94    91    1
    21    45    46    1
    22    43    44    2
    23    90    91    1
    24    91    92    1
    25   102   101    1
    26   101    98    1
    27    92    93    2
    28    47    48    1
    29    25    22    1
    30    25    26    1
    31    21    22    1
    32    18    19    1
    33    18    17    1
    34    22    23    1
    35    19    20    1
    36    98    97    1
    37    98    99    1
    38    28    26   ar
    39    28    30   ar
    40    48    49    1
    41    48    51    1
    42    26    27   ar
    43    16    17    1
    44    16    13    1
    45    10    11    1
    46    10     7    1
    47   100    99    2
    48    49    50    2
    49    99   103   am
    50    54    52   am
    51    53    52    2
    52    15    14    2
    53    52    51    1
    54    23    24    2
    55     9     8    2
    56    30    31   ar
    57    14    13    1
    58    27    29   ar
    59   103   104    1
    60    13    12    1
    61     8     7    1
    62     7     6    1
    63   106   105    2
    64    31    29   ar
    65   105   104    1
    66   104   107    1
    67     6     3   am
    68    58    57    2
    69    59    56    1
    70    59    60    1
    71    56    57    1
    72    56    55    1
    73   107   108    1
    74    57    61   am
    75     3     4    2
    76     3     2    1
    77     5     2    1
    78    72    70    1
    79    71    70    1
    80   108   109    1
    81   108   110    1
    82    70    69    1
    83     2     1    1
    84    61    62    1
    85    62    63    1
    86    65    63   am
    87    65    66    1
    88    63    64    2
    89    69    66    1
    90    66    67    1
    91    83    81    1
    92    82    81    1
    93    81    80    2
    94    67    68    2
    95    80    79    1
    96    79    78    1
    97    78    77    1
    98    73    74    1
    99    74    77    1
   100    74    75    1
   101    75    76    2
