@<TRIPOS>MOLECULE
tmp/2exbA00.pdb
 154 142 0 0 0
SMALL
GASTEIGER

@<TRIPOS>ATOM
      1  N         80.6710   -8.4900   54.6890 N.3    36  LEU36      -0.1245
      2  CA        81.4850   -7.4760   54.0410 C.3    36  LEU36       0.1561
      3  C         80.8840   -7.2150   52.6440 C.2    36  LEU36       0.2260
      4  O         80.8820   -8.1180   51.8080 O.2    36  LEU36      -0.2867
      5  CB        82.8650   -8.0600   53.8160 C.3    36  LEU36       0.0270
      6  CG        84.2430   -7.4100   54.0080 C.3    36  LEU36       0.0019
      7  CD1       85.1580   -7.8250   52.8750 C.3    36  LEU36       0.0001
      8  CD2       84.2770   -5.9020   54.2910 C.3    36  LEU36       0.0001
      9  N         82.1080   -5.0540   50.3450 N.3    38  ALA38      -0.1231
     10  CA        83.0860   -4.5880   49.3740 C.3    38  ALA38       0.1694
     11  C         82.4200   -3.5800   48.4350 C.2    38  ALA38       0.2592
     12  O         81.6400   -2.7280   48.9250 O.2    38  ALA38      -0.2718
     13  CB        83.7880   -5.8020   48.6410 C.3    38  ALA38       0.0304
     14  N         82.7070   -3.6120   47.1230 N.am   39  SER39      -0.1952
     15  CA        82.2680   -2.4870   46.2460 C.3    39  SER39       0.1924
     16  C         80.7600   -2.3670   46.0360 C.2    39  SER39       0.2314
     17  O         80.3300   -1.3480   45.5180 O.2    39  SER39      -0.2863
     18  CB        82.9550   -2.4820   44.8730 C.3    39  SER39       0.2116
     19  OG        84.3320   -2.1450   44.9820 O.3    39  SER39      -0.2180
     20  N         97.7310   -1.0720   51.8360 N.3   132  ASP132     -0.1239
     21  CA        97.2190   -0.6340   50.5400 C.3   132  ASP132      0.1674
     22  C         97.3040    0.8980   50.3500 C.2   132  ASP132      0.2266
     23  O         96.9680    1.3950   49.2580 O.2   132  ASP132     -0.2867
     24  CB        95.7610   -1.0950   50.3430 C.3   132  ASP132      0.1410
     25  CG        95.6180   -2.5950   50.2460 C.2   132  ASP132      0.3668
     26  OD1       96.5790   -3.2620   49.7860 O.co2 132  ASP132     -0.2456
     27  OD2       94.5670   -3.1840   50.6180 O.co2 132  ASP132     -0.2456
     28  N         94.6430    2.3990   43.8300 N.3   137  PHE137     -0.1241
     29  CA        93.2490    2.0690   44.0630 C.3   137  PHE137      0.1605
     30  C         92.7830    2.4930   45.4450 C.2   137  PHE137      0.2264
     31  O         91.5650    2.5940   45.7080 O.2   137  PHE137     -0.2867
     32  CB        92.9510    0.5770   43.8360 C.3   137  PHE137      0.0534
     33  CG        93.4750   -0.3460   44.9400 C.ar  137  PHE137     -0.0203
     34  CD1       92.6990   -0.6130   46.0720 C.ar  137  PHE137     -0.0042
     35  CD2       94.7250   -0.9550   44.8230 C.ar  137  PHE137     -0.0042
     36  CE1       93.1700   -1.4570   47.0860 C.ar  137  PHE137     -0.0003
     37  CE2       95.2030   -1.8240   45.8400 C.ar  137  PHE137     -0.0003
     38  CZ        94.4090   -2.0690   46.9680 C.ar  137  PHE137     -0.0000
     39  N         82.8260    1.3270   36.6830 N.3   282  LYS282     -0.1231
     40  CA        84.2670    1.0420   36.8650 C.3   282  LYS282      0.1693
     41  C         84.6450    0.7260   38.3170 C.2   282  LYS282      0.2592
     42  O         85.7860    0.3350   38.5930 O.2   282  LYS282     -0.2718
     43  CB        85.1220    2.2220   36.3650 C.3   282  LYS282      0.0285
     44  CG        84.9060    2.5590   34.8970 C.3   282  LYS282      0.0035
     45  CD        85.7530    1.6700   33.9630 C.3   282  LYS282      0.0206
     46  CE        85.7090    2.2060   32.5350 C.3   282  LYS282      0.1093
     47  NZ        85.4500    3.6780   32.6030 N.3   282  LYS282     -0.1314
     48  N         83.6820    0.8620   39.2250 N.am  283  SER283     -0.1952
     49  CA        83.9110    0.6690   40.6830 C.3   283  SER283      0.1924
     50  C         85.0350    1.6190   41.0640 C.2   283  SER283      0.2314
     51  O         86.0880    1.1660   41.5530 O.2   283  SER283     -0.2863
     52  CB        84.2980   -0.7850   41.0420 C.3   283  SER283      0.2116
     53  OG        83.7530   -1.1750   42.2960 O.3   283  SER283     -0.2180
     54  N         86.7730    3.8790   43.3040 N.3   285  ASN285     -0.1240
     55  CA        86.8000    4.1500   44.7560 C.3   285  ASN285      0.1653
     56  C         86.9050    5.6770   45.0300 C.2   285  ASN285      0.2266
     57  O         86.3040    6.2060   45.9490 O.2   285  ASN285     -0.2867
     58  CB        88.0180    3.4440   45.3870 C.3   285  ASN285      0.1155
     59  CG        87.9190    1.9470   45.3350 C.2   285  ASN285      0.2627
     60  OD1       86.8040    1.3680   45.3030 O.2   285  ASN285     -0.2716
     61  ND2       89.0780    1.2850   45.3070 N.am  285  ASN285     -0.0877
     62  N         83.4130    0.9800   49.7380 N.3   335  GLY335     -0.1210
     63  CA        83.4870   -0.3800   50.2700 C.3   335  GLY335      0.1956
     64  C         84.9130   -0.9100   50.5370 C.2   335  GLY335      0.2611
     65  O         85.1130   -2.1220   50.8330 O.2   335  GLY335     -0.2717
     66  N         85.9120   -0.0250   50.4260 N.am  336  LEU336     -0.1979
     67  CA        87.2790   -0.4360   50.7640 C.3   336  LEU336      0.1596
     68  C         87.3890   -0.8710   52.2150 C.2   336  LEU336      0.2287
     69  O         88.1240   -1.8100   52.5360 O.2   336  LEU336     -0.2864
     70  CB        88.2990    0.6940   50.5220 C.3   336  LEU336      0.0297
     71  CG        88.7390    0.8270   49.0570 C.3   336  LEU336      0.0022
     72  CD1       89.4570    2.1840   48.9450 C.3   336  LEU336      0.0001
     73  CD2       89.6630   -0.3420   48.5930 C.3   336  LEU336      0.0001
     74  N         87.2160   -2.4630   55.7680 N.3   338  ARG338     -0.1245
     75  CA        86.8600   -3.7570   56.3230 C.3   338  ARG338      0.1563
     76  C         85.8850   -3.6210   57.4870 C.2   338  ARG338      0.2260
     77  O         85.3990   -4.6370   58.0280 O.2   338  ARG338     -0.2867
     78  CB        88.1270   -4.5310   56.7500 C.3   338  ARG338      0.0307
     79  CG        89.1500   -4.7730   55.6100 C.3   338  ARG338      0.0489
     80  CD        88.5130   -5.2390   54.2720 C.3   338  ARG338      0.2205
     81  NE        89.4670   -5.9470   53.4370 N.pl3 338  ARG338     -0.0865
     82  CZ        90.2530   -5.4000   52.5160 C.cat 338  ARG338      0.5346
     83  NH1       90.1970   -4.0800   52.2390 N.pl3 338  ARG338      0.1354
     84  NH2       91.0820   -6.2020   51.8420 N.pl3 338  ARG338      0.1354
     85  N         81.8820   -3.9200   34.2370 N.3   375  SER375     -0.1217
     86  CA        82.3540   -4.9980   35.1240 C.3   375  SER375      0.1889
     87  C         81.7110   -6.3900   34.8670 C.2   375  SER375      0.2288
     88  O         82.2180   -7.4260   35.3360 O.2   375  SER375     -0.2866
     89  CB        82.1520   -4.6100   36.5840 C.3   375  SER375      0.2089
     90  OG        82.6890   -3.3220   36.8450 O.3   375  SER375     -0.2183
     91  N         80.9410  -12.3720   32.6740 N.3   379  ARG379     -0.1245
     92  CA        81.0310  -13.0780   33.9170 C.3   379  ARG379      0.1563
     93  C         80.4460  -14.4300   33.5950 C.2   379  ARG379      0.2260
     94  O         79.2640  -14.5460   33.2480 O.2   379  ARG379     -0.2867
     95  CB        80.2590  -12.3470   34.9840 C.3   379  ARG379      0.0307
     96  CG        80.2910  -13.0430   36.3260 C.3   379  ARG379      0.0489
     97  CD        79.6060  -12.1770   37.3540 C.3   379  ARG379      0.2205
     98  NE        79.6010  -12.7360   38.7100 N.pl3 379  ARG379     -0.0865
     99  CZ        80.3980  -12.3540   39.6970 C.cat 379  ARG379      0.5346
    100  NH1       80.2240  -12.8750   40.8940 N.pl3 379  ARG379      0.1354
    101  NH2       81.3190  -11.4270   39.5190 N.pl3 379  ARG379      0.1354
    102  N         75.8250   -4.5360   40.5860 N.3   394  LYS394     -0.1231
    103  CA        77.1190   -4.0800   41.0570 C.3   394  LYS394      0.1693
    104  C         77.9200   -5.2650   41.6600 C.2   394  LYS394      0.2592
    105  O         77.3610   -6.0290   42.4590 O.2   394  LYS394     -0.2718
    106  CB        76.8970   -3.0290   42.1410 C.3   394  LYS394      0.0285
    107  CG        78.2110   -2.3230   42.5600 C.3   394  LYS394      0.0035
    108  CD        78.9470   -1.5370   41.3790 C.3   394  LYS394      0.0206
    109  CE        80.3710   -1.0770   41.8180 C.3   394  LYS394      0.1093
    110  NZ        81.3190   -2.2660   41.8300 N.3   394  LYS394     -0.1314
    111  N         79.1870   -5.4220   41.2740 N.am  395  THR395     -0.1953
    112  CA        80.0500   -6.4570   41.8550 C.3   395  THR395      0.1897
    113  C         80.7150   -5.9120   43.1220 C.2   395  THR395      0.2313
    114  O         80.7790   -4.6970   43.3360 O.2   395  THR395     -0.2863
    115  CB        81.1760   -6.9170   40.8960 C.3   395  THR395      0.1794
    116  OG1       82.0280   -5.7990   40.5810 O.3   395  THR395     -0.2208
    117  CG2       80.6530   -7.4010   39.5470 C.3   395  THR395      0.0378
    118  N         84.2230   -7.4560   44.7110 N.3   397  SER397     -0.1202
    119  CA        85.2260   -8.5310   44.5250 C.3   397  SER397      0.2020
    120  C         86.5100   -8.2400   45.2920 C.2   397  SER397      0.2618
    121  O         86.9990   -7.0940   45.3470 O.2   397  SER397     -0.2717
    122  CB        85.5440   -8.7570   43.0300 C.3   397  SER397      0.2103
    123  OG        84.3700   -9.1900   42.3350 O.3   397  SER397     -0.2182
    124  N         87.0300   -9.2960   45.9110 N.am  398  LEU398     -0.1979
    125  CA        88.2380   -9.2590   46.7160 C.3   398  LEU398      0.1596
    126  C         88.7560  -10.6810   46.5830 C.2   398  LEU398      0.2287
    127  O         88.0130  -11.5520   46.1430 O.2   398  LEU398     -0.2864
    128  CB        87.8670   -9.1000   48.1780 C.3   398  LEU398      0.0297
    129  CG        87.8930   -7.8170   48.9530 C.3   398  LEU398      0.0022
    130  CD1       86.5290   -7.5840   49.5480 C.3   398  LEU398      0.0001
    131  CD2       88.9450   -8.0340   50.0330 C.3   398  LEU398      0.0001
    132  N         83.0200  -12.7480   46.3210 N.3   402  TYR402     -0.1241
    133  CA        82.3040  -12.6760   45.0480 C.3   402  TYR402      0.1605
    134  C         80.8770  -12.1720   45.2550 C.2   402  TYR402      0.2264
    135  O         79.9260  -12.9580   45.1450 O.2   402  TYR402     -0.2867
    136  CB        82.3130  -14.0630   44.4000 C.3   402  TYR402      0.0534
    137  CG        83.6870  -14.4640   43.9090 C.ar  402  TYR402     -0.0201
    138  CD1       84.5270  -15.2480   44.7070 C.ar  402  TYR402     -0.0009
    139  CD2       84.1590  -14.0440   42.6590 C.ar  402  TYR402     -0.0009
    140  CE1       85.8150  -15.6100   44.2780 C.ar  402  TYR402      0.0417
    141  CE2       85.4420  -14.4010   42.2050 C.ar  402  TYR402      0.0417
    142  CZ        86.2600  -15.1880   43.0260 C.ar  402  TYR402      0.1957
    143  OH        87.5190  -15.5280   42.5740 O.3   402  TYR402     -0.2866
    144  N         88.0270  -20.8750   39.6910 N.3   428  ARG428     -0.1245
    145  CA        86.8630  -20.3210   38.9860 C.3   428  ARG428      0.1563
    146  C         86.0780  -21.3790   38.1880 C.2   428  ARG428      0.2260
    147  O         85.9000  -21.2650   36.9610 O.2   428  ARG428     -0.2867
    148  CB        87.2800  -19.1190   38.1050 C.3   428  ARG428      0.0307
    149  CG        86.9580  -17.7300   38.7070 C.3   428  ARG428      0.0489
    150  CD        85.5690  -17.1710   38.3160 C.3   428  ARG428      0.2205
    151  NE        85.5080  -15.7040   38.4090 N.pl3 428  ARG428     -0.0865
    152  CZ        84.4520  -14.9420   38.0570 C.cat 428  ARG428      0.5346
    153  NH1       83.3310  -15.4980   37.5800 N.pl3 428  ARG428      0.1354
    154  NH2       84.5250  -13.6140   38.1880 N.pl3 428  ARG428      0.1354
@<TRIPOS>BOND
     1    46    47    1
     2    46    45    1
     3    91    92    1
     4    94    93    2
     5    93    92    1
     6    92    95    1
     7    45    44    1
     8    85    86    1
     9    87    86    1
    10    87    88    2
    11    44    43    1
    12    95    96    1
    13    86    89    1
    14    96    97    1
    15    43    40    1
    16    89    90    1
    17    39    40    1
    18    40    41    1
    19   147   146    2
    20    97    98    1
    21   153   152    1
    22   152   154    1
    23   152   151    2
    24   148   149    1
    25   148   145    1
    26   146   145    1
    27   150   151    1
    28   150   149    1
    29    41    42    2
    30    41    48   am
    31    98    99    2
    32   145   144    1
    33    48    49    1
    34   101    99    1
    35   117   115    1
    36    99   100    1
    37   116   115    1
    38   102   103    1
    39    49    52    1
    40    49    50    1
    41   115   112    1
    42    52    53    1
    43   103   104    1
    44   103   106    1
    45    50    51    2
    46   111   104   am
    47   111   112    1
    48   108   109    1
    49   108   107    1
    50   104   105    2
    51   109   110    1
    52   112   113    1
    53   106   107    1
    54   141   139   ar
    55   141   142   ar
    56   123   122    1
    57   143   142    1
    58   139   137   ar
    59   142   140   ar
    60   122   119    1
    61   113   114    2
    62    54    55    1
    63    28    29    1
    64    32    29    1
    65    32    33    1
    66   137   136    1
    67   137   138   ar
    68    29    30    1
    69   140   138   ar
    70   136   133    1
    71   119   118    1
    72   119   120    1
    73    55    56    1
    74    55    58    1
    75    35    33   ar
    76    35    37   ar
    77    18    19    1
    78    18    15    1
    79    33    34   ar
    80    56    57    2
    81   133   134    1
    82   133   132    1
    83   135   134    2
    84   120   121    2
    85   120   124   am
    86    60    59    2
    87    61    59   am
    88    59    58    1
    89    30    31    2
    90    17    16    2
    91    37    38   ar
    92   124   125    1
    93    16    15    1
    94    34    36   ar
    95   127   126    2
    96    15    14    1
    97   126   125    1
    98   125   128    1
    99    38    36   ar
   100    14    11   am
   101   128   129    1
   102    11    12    2
   103    11    10    1
   104    73    71    1
   105    13    10    1
   106    72    71    1
   107   129   130    1
   108   129   131    1
   109    71    70    1
   110    23    22    2
   111    10     9    1
   112    62    63    1
   113    26    25   ar
   114    25    24    1
   115    25    27   ar
   116    63    64    1
   117    24    21    1
   118    22    21    1
   119    66    64   am
   120    66    67    1
   121    70    67    1
   122    64    65    2
   123    21    20    1
   124    67    68    1
   125     4     3    2
   126    84    82    1
   127    68    69    2
   128    83    82    1
   129    82    81    2
   130     3     2    1
   131     7     6    1
   132    81    80    1
   133     5     6    1
   134     5     2    1
   135     6     8    1
   136     2     1    1
   137    80    79    1
   138    79    78    1
   139    74    75    1
   140    75    78    1
   141    75    76    1
   142    76    77    2
