@<TRIPOS>MOLECULE
tmp/2excA00.pdb
 176 164 0 0 0
SMALL
GASTEIGER

@<TRIPOS>ATOM
      1  N         29.6870    6.7790   37.7670 N.3    25  PRO25      -0.2102
      2  CA        29.6290    7.8730   36.7760 C.3    25  PRO25       0.1504
      3  C         29.1740    7.3960   35.3990 C.2    25  PRO25       0.2576
      4  O         29.7720    6.4770   34.8270 O.2    25  PRO25      -0.2718
      5  CB        31.0710    8.3920   36.7180 C.3    25  PRO25       0.0282
      6  CG        31.9210    7.2540   37.1810 C.3    25  PRO25       0.0208
      7  CD        31.0760    6.3830   38.0810 C.3    25  PRO25       0.0893
      8  N         28.1040    7.9990   34.8850 N.am   26  ILE26      -0.1966
      9  CA        27.6000    7.6660   33.5520 C.3    26  ILE26       0.1727
     10  C         27.5170    8.8830   32.6470 C.2    26  ILE26       0.2616
     11  O         27.6010    8.7360   31.4320 O.2    26  ILE26      -0.2715
     12  CB        26.2500    6.8980   33.5820 C.3    26  ILE26       0.0290
     13  CG1       25.1370    7.7320   34.2280 C.3    26  ILE26       0.0022
     14  CG2       26.4310    5.5310   34.2490 C.3    26  ILE26       0.0023
     15  CD1       23.7950    7.0430   34.3500 C.3    26  ILE26       0.0001
     16  N         27.3940   10.0750   33.2430 N.am   27  GLY27      -0.1955
     17  CA        27.2210   11.3360   32.4890 C.3    27  GLY27       0.1869
     18  C         27.8100   12.6300   33.0730 C.2    27  GLY27       0.2309
     19  O         28.0170   12.7320   34.2960 O.2    27  GLY27      -0.2863
     20  N         25.4560   13.4410   35.9020 N.3    31  VAL31      -0.1245
     21  CA        24.4880   12.3600   36.0900 C.3    31  VAL31       0.1561
     22  C         25.2190   11.1230   36.5540 C.2    31  VAL31       0.2260
     23  O         26.3570   10.8750   36.1140 O.2    31  VAL31      -0.2867
     24  CB        23.7620   11.9940   34.7620 C.3    31  VAL31       0.0252
     25  CG1       22.8660   10.7640   34.9380 C.3    31  VAL31       0.0019
     26  CG2       22.9630   13.1770   34.2090 C.3    31  VAL31       0.0019
     27  N         24.4950    6.6300   37.8970 N.3    33  ALA33      -0.1245
     28  CA        23.7160    5.4290   38.0970 C.3    33  ALA33       0.1562
     29  C         23.7740    5.0070   39.5460 C.2    33  ALA33       0.2260
     30  O         24.8180    5.0960   40.1790 O.2    33  ALA33      -0.2867
     31  CB        24.2610    4.3250   37.2310 C.3    33  ALA33       0.0290
     32  N         18.8340    6.5630   37.6080 N.3    44  ALA44      -0.1245
     33  CA        19.7460    7.6340   37.1960 C.3    44  ALA44       0.1562
     34  C         19.5150    8.8270   38.0810 C.2    44  ALA44       0.2260
     35  O         18.3750    9.2380   38.3120 O.2    44  ALA44      -0.2867
     36  CB        19.5330    8.0220   35.7580 C.3    44  ALA44       0.0290
     37  N         20.6390   12.8500   38.7470 N.3    46  LYS46      -0.1245
     38  CA        21.2070   14.0320   38.1260 C.3    46  LYS46       0.1561
     39  C         21.4240   15.1360   39.1470 C.2    46  LYS46       0.2260
     40  O         20.4760   15.5870   39.7990 O.2    46  LYS46      -0.2867
     41  CB        20.2780   14.5440   37.0360 C.3    46  LYS46       0.0271
     42  CG        20.9420   15.5760   36.1700 C.3    46  LYS46       0.0035
     43  CD        19.9760   16.3410   35.2870 C.3    46  LYS46       0.0206
     44  CE        20.7810   17.1090   34.2480 C.3    46  LYS46       0.1093
     45  NZ        19.9400   17.7720   33.2600 N.3    46  LYS46      -0.1314
     46  N          8.3660   18.2300   34.3470 N.3    68  MET68      -0.1245
     47  CA         8.5370   16.8170   34.6860 C.3    68  MET68       0.1570
     48  C          7.4330   16.3200   35.5800 C.2    68  MET68       0.2261
     49  O          6.9880   15.1960   35.4130 O.2    68  MET68      -0.2867
     50  CB         9.8780   16.5290   35.3270 C.3    68  MET68       0.0387
     51  CG        10.9790   16.3230   34.3270 C.3    68  MET68       0.0595
     52  SD        12.5600   16.3740   35.1620 S.3    68  MET68      -0.1393
     53  CE        13.6710   16.8330   33.8180 C.3    68  MET68       0.0692
     54  N         10.2490   11.1110   30.2370 N.3    77  ILE77      -0.1245
     55  CA        10.7920   10.7640   31.5560 C.3    77  ILE77       0.1561
     56  C          9.7140   10.8250   32.6570 C.2    77  ILE77       0.2260
     57  O          8.9470   11.7880   32.7120 O.2    77  ILE77      -0.2867
     58  CB        12.0090   11.6780   31.8990 C.3    77  ILE77       0.0252
     59  CG1       12.2440   11.7920   33.3930 C.3    77  ILE77       0.0019
     60  CG2       11.8030   13.1000   31.3480 C.3    77  ILE77       0.0019
     61  CD1       13.0360   13.0430   33.7830 C.3    77  ILE77       0.0001
     62  N          9.9010   11.2820   36.4120 N.3    79  LEU79      -0.1245
     63  CA        10.6310   11.6730   37.6250 C.3    79  LEU79       0.1561
     64  C         10.2060   10.8380   38.8310 C.2    79  LEU79       0.2260
     65  O          9.0280   10.8070   39.1670 O.2    79  LEU79      -0.2867
     66  CB        10.3350   13.1430   37.9160 C.3    79  LEU79       0.0270
     67  CG        11.2390   13.9180   38.8590 C.3    79  LEU79       0.0019
     68  CD1       12.6880   13.9650   38.3270 C.3    79  LEU79       0.0001
     69  CD2       10.6350   15.3080   39.0710 C.3    79  LEU79       0.0001
     70  N         17.6300   15.3240   40.7580 N.3    97  LEU97      -0.1231
     71  CA        16.5540   14.6160   40.0980 C.3    97  LEU97       0.1693
     72  C         16.9270   13.1520   39.9310 C.2    97  LEU97       0.2592
     73  O         18.0840   12.8100   39.6610 O.2    97  LEU97      -0.2718
     74  CB        16.2210   15.2540   38.7540 C.3    97  LEU97       0.0284
     75  CG        16.0800   16.7780   38.6850 C.3    97  LEU97       0.0019
     76  CD1       16.0940   17.1830   37.2340 C.3    97  LEU97       0.0001
     77  CD2       14.8000   17.2990   39.3590 C.3    97  LEU97       0.0001
     78  N         15.9280   12.2980   40.1070 N.am   98  VAL98      -0.1966
     79  CA        16.1070   10.8570   40.0910 C.3    98  VAL98       0.1727
     80  C         15.0290   10.2560   39.2090 C.2    98  VAL98       0.2616
     81  O         13.8520   10.5580   39.3810 O.2    98  VAL98      -0.2715
     82  CB        15.9230   10.2700   41.5160 C.3    98  VAL98       0.0290
     83  CG1       15.8870    8.7440   41.4700 C.3    98  VAL98       0.0023
     84  CG2       17.0140   10.7650   42.4900 C.3    98  VAL98       0.0023
     85  N         15.4160    9.4050   38.2660 N.am   99  MET99      -0.1963
     86  CA        14.4490    8.6120   37.4780 C.3    99  MET99       0.1736
     87  C         15.0210    7.2070   37.3980 C.2    99  MET99       0.2616
     88  O         16.1670    7.0150   37.7770 O.2    99  MET99      -0.2715
     89  CB        14.2630    9.2080   36.0750 C.3    99  MET99       0.0427
     90  CG        15.5570    9.1860   35.2100 C.3    99  MET99       0.0599
     91  SD        15.3500    9.5840   33.4540 S.3    99  MET99      -0.1393
     92  CE        14.3980    8.1810   32.8450 C.3    99  MET99       0.0692
     93  N         14.2440    6.2340   36.9100 N.am  100  GLU100     -0.1963
     94  CA        14.7380    4.8440   36.6780 C.3   100  GLU100      0.1733
     95  C         15.7480    4.7290   35.5470 C.2   100  GLU100      0.2616
     96  O         15.7270    5.5160   34.6130 O.2   100  GLU100     -0.2715
     97  CB        13.5890    3.9130   36.3500 C.3   100  GLU100      0.0429
     98  CG        12.9540    4.2300   35.0140 C.3   100  GLU100      0.1163
     99  CD        12.6770    2.9960   34.2050 C.2   100  GLU100      0.3649
    100  OE1       12.8870    1.8820   34.7430 O.co2 100  GLU100     -0.2457
    101  OE2       12.2420    3.1530   33.0320 O.co2 100  GLU100     -0.2457
    102  N         16.6020    3.7210   35.6150 N.am  101  LEU101     -0.1963
    103  CA        17.7550    3.6240   34.7150 C.3   101  LEU101      0.1728
    104  C         17.4500    2.7830   33.4830 C.2   101  LEU101      0.2616
    105  O         16.7850    1.7400   33.5710 O.2   101  LEU101     -0.2715
    106  CB        18.9520    3.0230   35.4480 C.3   101  LEU101      0.0311
    107  CG        20.3540    3.0260   34.8310 C.3   101  LEU101      0.0022
    108  CD1       21.1200    4.3210   35.1560 C.3   101  LEU101      0.0001
    109  CD2       21.1450    1.8000   35.3260 C.3   101  LEU101      0.0001
    110  N         17.9330    3.2570   32.3360 N.am  102  MET102     -0.1963
    111  CA        17.9080    2.5070   31.0900 C.3   102  MET102      0.1736
    112  C         19.3380    2.0480   30.7410 C.2   102  MET102      0.2616
    113  O         20.3370    2.5430   31.3040 O.2   102  MET102     -0.2715
    114  CB        17.3710    3.3800   29.9830 C.3   102  MET102      0.0427
    115  CG        16.3100    4.3260   30.4600 C.3   102  MET102      0.0599
    116  SD        14.6500    3.6260   30.3900 S.3   102  MET102     -0.1393
    117  CE        14.2100    4.0780   28.7070 C.3   102  MET102      0.0692
    118  N         19.4140    1.1180   29.7920 N.am  103  ASP103     -0.1957
    119  CA        20.6280    0.4150   29.4680 C.3   103  ASP103      0.1840
    120  C         21.5450    1.1790   28.5120 C.2   103  ASP103      0.2622
    121  O         22.7590    0.9140   28.4850 O.2   103  ASP103     -0.2715
    122  CB        20.2410   -0.9260   28.8730 C.3   103  ASP103      0.1450
    123  CG        19.3360   -1.7150   29.7980 C.2   103  ASP103      0.3671
    124  OD1       19.8100   -2.0970   30.8920 O.co2 103  ASP103     -0.2456
    125  OD2       18.1520   -1.9420   29.4580 O.co2 103  ASP103     -0.2456
    126  N         20.9780    2.1270   27.7480 N.am  104  ALA104     -0.1963
    127  CA        21.7010    2.7960   26.6520 C.3   104  ALA104      0.1728
    128  C         21.2040    4.2090   26.4170 C.2   104  ALA104      0.2616
    129  O         20.0210    4.4930   26.6090 O.2   104  ALA104     -0.2715
    130  CB        21.5670    1.9780   25.3550 C.3   104  ALA104      0.0334
    131  N         22.1030    5.1000   26.0120 N.am  105  ASN105     -0.1972
    132  CA        21.6590    6.3880   25.4910 C.3   105  ASN105      0.1688
    133  C         21.6320    6.2800   23.9670 C.2   105  ASN105      0.2292
    134  O         22.2600    5.3900   23.3990 O.2   105  ASN105     -0.2864
    135  CB        22.4550    7.5910   26.0400 C.3   105  ASN105      0.1181
    136  CG        23.7970    7.7680   25.3760 C.2   105  ASN105      0.2629
    137  OD1       23.8940    8.3790   24.3230 O.2   105  ASN105     -0.2716
    138  ND2       24.8470    7.2670   26.0070 N.am  105  ASN105     -0.0877
    139  N         24.5860    5.6120   21.4290 N.3   108  GLN108     -0.1245
    140  CA        25.2110    4.2770   21.3650 C.3   108  GLN108      0.1566
    141  C         24.4260    3.4380   20.4100 C.2   108  GLN108      0.2260
    142  O         24.9970    2.6040   19.7090 O.2   108  GLN108     -0.2867
    143  CB        25.1910    3.5730   22.7200 C.3   108  GLN108      0.0367
    144  CG        25.9390    4.3040   23.8560 C.3   108  GLN108      0.0905
    145  CD        25.3470    4.0050   25.2550 C.2   108  GLN108      0.2608
    146  OE1       24.6280    4.8340   25.8200 O.2   108  GLN108     -0.2717
    147  NE2       25.6360    2.8140   25.8000 N.am  108  GLN108     -0.0878
    148  N         21.5280   12.4080   22.5000 N.3   146  SER146     -0.1202
    149  CA        22.0420   12.3960   23.8850 C.3   146  SER146      0.2020
    150  C         20.9430   12.5680   24.9710 C.2   146  SER146      0.2618
    151  O         21.1560   12.1630   26.1120 O.2   146  SER146     -0.2717
    152  CB        23.1820   13.3850   24.0800 C.3   146  SER146      0.2103
    153  OG        22.7840   14.6540   23.5990 O.3   146  SER146     -0.2182
    154  N         19.7740   13.1110   24.6150 N.am  147  ASN147     -0.1974
    155  CA        18.6330   13.2660   25.5590 C.3   147  ASN147      0.1688
    156  C         17.5130   12.2610   25.3510 C.2   147  ASN147      0.2292
    157  O         16.3940   12.4770   25.8120 O.2   147  ASN147     -0.2864
    158  CB        18.0000   14.6570   25.4620 C.3   147  ASN147      0.1181
    159  CG        18.9420   15.7540   25.8420 C.2   147  ASN147      0.2629
    160  OD1       19.7300   15.5820   26.7540 O.2   147  ASN147     -0.2716
    161  ND2       18.8640   16.8990   25.1600 N.am  147  ASN147     -0.0877
    162  N         16.9120    8.0550   25.9260 N.3   149  VAL149     -0.1245
    163  CA        17.5050    6.8400   26.5070 C.3   149  VAL149      0.1561
    164  C         16.7270    5.5890   26.1140 C.2   149  VAL149      0.2260
    165  O         15.5760    5.6940   25.6720 O.2   149  VAL149     -0.2867
    166  CB        17.6530    6.9330   28.0310 C.3   149  VAL149      0.0252
    167  CG1       18.9340    7.6740   28.3720 C.3   149  VAL149      0.0019
    168  CG2       16.4200    7.6230   28.6570 C.3   149  VAL149      0.0019
    169  N         14.3020   12.5790   27.5760 N.3   159  LEU159     -0.1245
    170  CA        14.7130   13.1030   28.8810 C.3   159  LEU159      0.1561
    171  C         14.3540   14.5770   29.1400 C.2   159  LEU159      0.2260
    172  O         14.0410   14.9640   30.2660 O.2   159  LEU159     -0.2867
    173  CB        16.2210   12.9070   29.0660 C.3   159  LEU159      0.0270
    174  CG        16.6950   11.4600   29.1390 C.3   159  LEU159      0.0019
    175  CD1       18.2170   11.3800   29.2360 C.3   159  LEU159      0.0001
    176  CD2       16.0000   10.7670   30.3120 C.3   159  LEU159      0.0001
@<TRIPOS>BOND
     1   142   141    2
     2   141   140    1
     3   140   139    1
     4   140   143    1
     5   148   149    1
     6   143   144    1
     7   134   133    2
     8   153   152    1
     9   144   145    1
    10   149   152    1
    11   149   150    1
    12   133   132    1
    13   137   136    2
    14   154   150   am
    15   154   155    1
    16   150   151    2
    17   161   159   am
    18   145   147   am
    19   145   146    2
    20   156   155    1
    21   156   157    2
    22   130   127    1
    23   136   138   am
    24   136   135    1
    25   158   155    1
    26   158   159    1
    27   132   131    1
    28   132   135    1
    29   165   164    2
    30   159   160    2
    31   162   163    1
    32   131   128   am
    33   164   163    1
    34   128   129    2
    35   128   127    1
    36   163   166    1
    37   127   126    1
    38   169   170    1
    39   126   120   am
    40   166   167    1
    41   166   168    1
    42   121   120    2
    43   120   119    1
    44   117   116    1
    45   122   119    1
    46   122   123    1
    47   170   173    1
    48   170   171    1
    49   173   174    1
    50   174   175    1
    51   174   176    1
    52   171   172    2
    53   125   123   ar
    54   119   118    1
    55   118   112   am
    56   123   124   ar
    57   114   115    1
    58   114   111    1
    59    54    55    1
    60   116   115    1
    61   112   111    1
    62   112   113    2
    63   111   110    1
    64    60    58    1
    65    11    10    2
    66    55    58    1
    67    55    56    1
    68    58    59    1
    69   110   104   am
    70    17    18    1
    71    17    16    1
    72    10    16   am
    73    10     9    1
    74    56    57    2
    75    92    91    1
    76   101    99   ar
    77    18    19    2
    78    45    44    1
    79    59    61    1
    80    91    90    1
    81   104   105    2
    82   104   103    1
    83     9    12    1
    84     9     8    1
    85    12    13    1
    86    12    14    1
    87    53    52    1
    88    99   100   ar
    89    99    98    1
    90    26    24    1
    91    13    15    1
    92    44    43    1
    93    51    52    1
    94    51    50    1
    95    46    47    1
    96    96    95    2
    97    47    50    1
    98    47    48    1
    99   103   106    1
   100   103   102    1
   101    24    25    1
   102    24    21    1
   103     4     3    2
   104   107   108    1
   105   107   109    1
   106   107   106    1
   107     8     3   am
   108    98    97    1
   109    90    89    1
   110    43    42    1
   111     3     2    1
   112    49    48    2
   113    95   102   am
   114    95    94    1
   115    36    33    1
   116    20    21    1
   117    89    86    1
   118    21    22    1
   119    23    22    2
   120    42    41    1
   121    97    94    1
   122    62    63    1
   123    94    93    1
   124     5     2    1
   125     5     6    1
   126     2     1    1
   127    93    87   am
   128    41    38    1
   129     6     7    1
   130    33    32    1
   131    33    34    1
   132    31    28    1
   133    76    75    1
   134    87    86    1
   135    87    88    2
   136    86    85    1
   137    63    66    1
   138    63    64    1
   139     1     7    1
   140    27    28    1
   141    66    67    1
   142    34    35    2
   143    28    29    1
   144    38    37    1
   145    38    39    1
   146    85    80   am
   147    68    67    1
   148    75    74    1
   149    75    77    1
   150    74    71    1
   151    64    65    2
   152    67    69    1
   153    39    40    2
   154    80    81    2
   155    80    79    1
   156    29    30    2
   157    73    72    2
   158    72    71    1
   159    72    78   am
   160    79    78    1
   161    79    82    1
   162    71    70    1
   163    83    82    1
   164    82    84    1
