@<TRIPOS>MOLECULE
tmp/2exgA00.pdb
 124 113 0 0 0
SMALL
GASTEIGER

@<TRIPOS>ATOM
      1  N         -1.3880   12.7340   -2.8610 N.3    17  LEU17      -0.1245
      2  CA        -1.2720   13.6100   -1.6860 C.3    17  LEU17       0.1561
      3  C         -2.3290   14.7440   -1.7000 C.2    17  LEU17       0.2260
      4  O         -2.0030   15.9080   -1.4790 O.2    17  LEU17      -0.2867
      5  CB         0.1920   14.1120   -1.5770 C.3    17  LEU17       0.0270
      6  CG         1.2140   13.1610   -0.9130 C.3    17  LEU17       0.0019
      7  CD1        1.1980   13.3090    0.6080 C.3    17  LEU17       0.0001
      8  CD2        1.0460   11.6670   -1.2140 C.3    17  LEU17       0.0001
      9  N          1.2880   14.3880    4.5020 N.3    22  GLY22      -0.1210
     10  CA         1.7850   13.0280    4.2850 C.3    22  GLY22       0.1956
     11  C          0.6970   12.0760    3.7660 C.2    22  GLY22       0.2612
     12  O         -0.4570   12.4520    3.5520 O.2    22  GLY22      -0.2717
     13  N          1.0540   10.8090    3.5350 N.am   23  MET23      -0.1965
     14  CA         0.0690    9.7900    3.1540 C.3    23  MET23       0.1736
     15  C         -0.8400    9.4140    4.3280 C.2    23  MET23       0.2617
     16  O         -2.0600    9.4300    4.1700 O.2    23  MET23      -0.2715
     17  CB         0.7850    8.5540    2.5930 C.3    23  MET23       0.0427
     18  CG         1.3320    8.8200    1.1840 C.3    23  MET23       0.0599
     19  SD         3.0880    8.4620    0.9380 S.3    23  MET23      -0.1393
     20  CE         3.1220    6.7030    1.3580 C.3    23  MET23       0.0692
     21  N         -0.2610    9.1130    5.4960 N.am   24  GLY24      -0.1940
     22  CA        -1.0030    8.6430    6.6680 C.3    24  GLY24       0.2014
     23  C         -1.5940    7.2490    6.4590 C.2    24  GLY24       0.2639
     24  O         -2.8070    7.0760    6.5040 O.2    24  GLY24      -0.2714
     25  N         -0.7520    6.2470    6.2250 N.am   25  LEU25      -0.1963
     26  CA        -1.1550    4.8600    5.9670 C.3    25  LEU25       0.1728
     27  C         -0.3600    3.9010    6.8730 C.2    25  LEU25       0.2617
     28  O          0.5600    4.3030    7.5740 O.2    25  LEU25      -0.2715
     29  CB        -0.9750    4.5580    4.4650 C.3    25  LEU25       0.0311
     30  CG        -1.8680    5.3660    3.5010 C.3    25  LEU25       0.0022
     31  CD1       -1.5040    5.0250    2.0570 C.3    25  LEU25       0.0001
     32  CD2       -3.3540    5.0720    3.6900 C.3    25  LEU25       0.0001
     33  N         -0.6990    2.6170    6.8940 N.am   26  SER26      -0.1936
     34  CA        -0.0730    1.6270    7.7740 C.3    26  SER26       0.2055
     35  C          0.1050    0.3180    7.0140 C.2    26  SER26       0.2642
     36  O         -0.8560   -0.2230    6.4660 O.2    26  SER26      -0.2714
     37  CB        -0.9470    1.4350    9.0150 C.3    26  SER26       0.2130
     38  OG        -0.3050    0.5720    9.9290 O.3    26  SER26      -0.2179
     39  N          1.3400   -0.1850    6.9530 N.am   27  ILE27      -0.1977
     40  CA         1.7110   -1.4260    6.2590 C.3    27  ILE27       0.1596
     41  C          2.6190   -2.2680    7.1400 C.2    27  ILE27       0.2287
     42  O          3.3710   -1.7490    7.9620 O.2    27  ILE27      -0.2864
     43  CB         2.3770   -1.2080    4.8760 C.3    27  ILE27       0.0276
     44  CG1        3.5560   -0.2070    4.9040 C.3    27  ILE27       0.0022
     45  CG2        1.3190   -0.8010    3.8490 C.3    27  ILE27       0.0022
     46  CD1        4.9150   -0.9110    4.9430 C.3    27  ILE27       0.0001
     47  N         -1.5310   -3.8940    3.7820 N.3    42  VAL42      -0.1245
     48  CA        -2.0740   -2.6440    4.3400 C.3    42  VAL42       0.1561
     49  C         -2.7840   -2.9710    5.6500 C.2    42  VAL42       0.2260
     50  O         -3.9100   -3.4660    5.6530 O.2    42  VAL42      -0.2867
     51  CB        -3.0270   -1.9340    3.3560 C.3    42  VAL42       0.0252
     52  CG1       -3.5610   -0.6150    3.9350 C.3    42  VAL42       0.0019
     53  CG2       -2.3210   -1.6030    2.0340 C.3    42  VAL42       0.0019
     54  N         -4.3290    5.7050    8.5130 N.3    46  VAL46      -0.1245
     55  CA        -3.9440    6.2960    9.8250 C.3    46  VAL46       0.1561
     56  C         -4.9280    7.3820   10.3000 C.2    46  VAL46       0.2260
     57  O         -4.6520    8.0830   11.2670 O.2    46  VAL46      -0.2867
     58  CB        -2.4480    6.7090    9.8370 C.3    46  VAL46       0.0252
     59  CG1       -1.8940    7.3660   11.1150 C.3    46  VAL46       0.0019
     60  CG2       -1.5870    5.4530    9.6490 C.3    46  VAL46       0.0019
     61  N         -8.0290    3.3050    1.5830 N.3    57  LEU57      -0.1245
     62  CA        -7.6200    1.8960    1.4400 C.3    57  LEU57       0.1561
     63  C         -8.2500    1.0060    2.5230 C.2    57  LEU57       0.2260
     64  O         -8.5490    1.4850    3.6210 O.2    57  LEU57      -0.2867
     65  CB        -6.0840    1.7750    1.4930 C.3    57  LEU57       0.0270
     66  CG        -5.2910    2.6310    0.4870 C.3    57  LEU57       0.0019
     67  CD1       -3.8060    2.2950    0.6130 C.3    57  LEU57       0.0001
     68  CD2       -5.7130    2.4010   -0.9640 C.3    57  LEU57       0.0001
     69  N         -0.4810   -6.1610   -0.1900 N.3    63  LEU63      -0.1245
     70  CA         0.4380   -5.3810   -1.0100 C.3    63  LEU63       0.1561
     71  C          1.5430   -6.2750   -1.6210 C.2    63  LEU63       0.2260
     72  O          2.0040   -7.2340   -1.0020 O.2    63  LEU63      -0.2867
     73  CB         0.8940   -4.2060   -0.1140 C.3    63  LEU63       0.0270
     74  CG         1.5430   -2.9760   -0.7810 C.3    63  LEU63       0.0019
     75  CD1        1.4860   -1.8260    0.2270 C.3    63  LEU63       0.0001
     76  CD2        3.0160   -3.1580   -1.1390 C.3    63  LEU63       0.0001
     77  N          9.5730    0.2700    1.5300 N.3    80  ALA80      -0.1245
     78  CA         9.0960    1.3720    2.3760 C.3    80  ALA80       0.1562
     79  C         10.1010    2.5380    2.4730 C.2    80  ALA80       0.2260
     80  O          9.7080    3.6990    2.6000 O.2    80  ALA80      -0.2867
     81  CB         8.7450    0.8250    3.7590 C.3    80  ALA80       0.0290
     82  N          8.8140    4.3930   -0.5510 N.3    83  MET83      -0.1230
     83  CA         7.4670    4.9260   -0.2520 C.3    83  MET83       0.1702
     84  C          7.4480    6.0940    0.7350 C.2    83  MET83       0.2593
     85  O          6.6010    6.9820    0.6400 O.2    83  MET83      -0.2718
     86  CB         6.5470    3.8800    0.3810 C.3    83  MET83       0.0401
     87  CG         6.2290    2.6830   -0.4960 C.3    83  MET83       0.0596
     88  SD         4.8370    1.7130    0.1160 S.3    83  MET83      -0.1393
     89  CE         5.4270    1.1480    1.7270 C.3    83  MET83       0.0692
     90  N          8.3430    6.0960    1.7180 N.am   84  THR84      -0.1953
     91  CA         8.4120    7.1650    2.7250 C.3    84  THR84       0.1897
     92  C          8.7810    8.5160    2.1010 C.2    84  THR84       0.2313
     93  O          8.3130    9.5480    2.5770 O.2    84  THR84      -0.2863
     94  CB         9.4030    6.7870    3.8400 C.3    84  THR84       0.1794
     95  OG1        9.0070    5.5610    4.4120 O.3    84  THR84      -0.2208
     96  CG2        9.4460    7.7940    4.9880 C.3    84  THR84       0.0378
     97  N          7.9870    9.6160   -0.9800 N.3    86  THR86      -0.1203
     98  CA         6.9800    9.8740   -2.0330 C.3    86  THR86       0.1994
     99  C          6.6600   11.3390   -2.3360 C.2    86  THR86       0.2618
    100  O          6.6980   11.7400   -3.4920 O.2    86  THR86      -0.2717
    101  CB         5.6930    9.1490   -1.6360 C.3    86  THR86       0.1784
    102  OG1        5.9260    7.7750   -1.7660 O.3    86  THR86      -0.2211
    103  CG2        4.4730    9.4950   -2.4740 C.3    86  THR86       0.0376
    104  N          6.3420   12.1410   -1.3160 N.am   87  SER87      -0.1951
    105  CA         6.0010   13.5780   -1.3990 C.3    87  SER87       0.1924
    106  C          4.8000   13.9920   -2.2780 C.2    87  SER87       0.2314
    107  O          4.2770   15.0820   -2.0570 O.2    87  SER87      -0.2863
    108  CB         7.2490   14.3950   -1.7610 C.3    87  SER87       0.2116
    109  OG         8.3020   14.1090   -0.8540 O.3    87  SER87      -0.2180
    110  N          1.8800    7.8160   -4.0220 N.3    90  VAL90      -0.1245
    111  CA         2.3380    6.4110   -4.0590 C.3    90  VAL90       0.1561
    112  C          1.5460    5.6730   -5.1320 C.2    90  VAL90       0.2260
    113  O          0.3250    5.5540   -5.0330 O.2    90  VAL90      -0.2867
    114  CB         2.1910    5.6430   -2.7220 C.3    90  VAL90       0.0252
    115  CG1        3.4810    5.6310   -1.9030 C.3    90  VAL90       0.0019
    116  CG2        1.0540    6.1500   -1.8280 C.3    90  VAL90       0.0019
    117  N          1.1410    1.7620   -5.9320 N.3    92  LEU92      -0.1245
    118  CA         1.1600    0.5260   -5.1530 C.3    92  LEU92       0.1561
    119  C          0.5380   -0.5950   -5.9990 C.2    92  LEU92       0.2260
    120  O         -0.1290   -0.3470   -7.0010 O.2    92  LEU92      -0.2867
    121  CB         0.3260    0.6840   -3.8580 C.3    92  LEU92       0.0270
    122  CG         0.7410    1.8040   -2.8900 C.3    92  LEU92       0.0019
    123  CD1       -0.2740    1.8900   -1.7500 C.3    92  LEU92       0.0001
    124  CD2        2.1180    1.5690   -2.2630 C.3    92  LEU92       0.0001
@<TRIPOS>BOND
     1   120   119    2
     2   119   118    1
     3   117   118    1
     4   118   121    1
     5   112   113    2
     6   112   111    1
     7   111   110    1
     8   111   114    1
     9   121   122    1
    10   100    99    2
    11   122   124    1
    12   122   123    1
    13     1     2    1
    14   114   115    1
    15   114   116    1
    16   103   101    1
    17    99    98    1
    18    99   104   am
    19   106   107    2
    20   106   105    1
    21    98   101    1
    22    98    97    1
    23   102   101    1
    24   108   105    1
    25   108   109    1
    26     3     2    1
    27     3     4    2
    28     2     5    1
    29    71    70    1
    30    71    72    2
    31     5     6    1
    32   105   104    1
    33     8     6    1
    34    76    74    1
    35    70    69    1
    36    70    73    1
    37    68    66    1
    38     6     7    1
    39    74    73    1
    40    74    75    1
    41    82    83    1
    42    87    88    1
    43    87    86    1
    44    83    86    1
    45    83    84    1
    46    88    89    1
    47    66    67    1
    48    66    65    1
    49    85    84    2
    50    84    90   am
    51    19    18    1
    52    19    20    1
    53    18    17    1
    54    62    65    1
    55    62    61    1
    56    62    63    1
    57    77    78    1
    58    90    91    1
    59    53    51    1
    60    31    30    1
    61    92    93    2
    62    92    91    1
    63    78    79    1
    64    78    81    1
    65    79    80    2
    66    63    64    2
    67    17    14    1
    68    91    94    1
    69    14    13    1
    70    14    15    1
    71    51    52    1
    72    51    48    1
    73    30    32    1
    74    30    29    1
    75    13    11   am
    76    12    11    2
    77    11    10    1
    78    47    48    1
    79    94    95    1
    80    94    96    1
    81    45    43    1
    82    16    15    2
    83    10     9    1
    84    15    21   am
    85    48    49    1
    86    29    26    1
    87    43    44    1
    88    43    40    1
    89    44    46    1
    90    21    22    1
    91    49    50    2
    92    26    25    1
    93    26    27    1
    94    25    23   am
    95    40    39    1
    96    40    41    1
    97    23    24    2
    98    23    22    1
    99    36    35    2
   100    27    33   am
   101    27    28    2
   102    33    34    1
   103    39    35   am
   104    35    34    1
   105    41    42    2
   106    34    37    1
   107    54    55    1
   108    37    38    1
   109    60    58    1
   110    55    58    1
   111    55    56    1
   112    58    59    1
   113    56    57    2
