@<TRIPOS>MOLECULE
tmp/2exjA00.pdb
 169 164 0 0 0
SMALL
GASTEIGER

@<TRIPOS>ATOM
      1  N        -38.7550   63.5240  102.1370 N.3    13  ASP13      -0.1239
      2  CA       -38.0670   64.7030  102.7020 C.3    13  ASP13       0.1674
      3  C        -38.1130   65.9300  101.7820 C.2    13  ASP13       0.2266
      4  O        -37.0480   66.5190  101.4490 O.2    13  ASP13      -0.2867
      5  CB       -36.6290   64.3810  103.0640 C.3    13  ASP13       0.1410
      6  CG       -36.4930   63.1070  103.8930 C.2    13  ASP13       0.3668
      7  OD1      -37.1370   62.9840  104.9530 O.co2  13  ASP13      -0.2456
      8  OD2      -35.6900   62.2450  103.4970 O.co2  13  ASP13      -0.2456
      9  N        -31.0590   58.8280   98.5390 N.3    30  PHE30      -0.1241
     10  CA       -30.3820   57.7140   99.2360 C.3    30  PHE30       0.1605
     11  C        -29.2200   57.1070   98.4360 C.2    30  PHE30       0.2264
     12  O        -28.2510   57.8430   98.1910 O.2    30  PHE30      -0.2867
     13  CB       -31.4190   56.7180   99.8780 C.3    30  PHE30       0.0534
     14  CG       -32.2770   57.4030  100.9350 C.ar   30  PHE30      -0.0203
     15  CD1      -33.3520   58.1860  100.5610 C.ar   30  PHE30      -0.0042
     16  CD2      -31.9110   57.3830  102.2620 C.ar   30  PHE30      -0.0042
     17  CE1      -34.0740   58.9230  101.4960 C.ar   30  PHE30      -0.0003
     18  CE2      -32.6380   58.1260  103.2280 C.ar   30  PHE30      -0.0003
     19  CZ       -33.7330   58.8780  102.8140 C.ar   30  PHE30      -0.0000
     20  N        -29.6100   61.4190  102.5000 N.3    72  TRP72      -0.1227
     21  CA       -30.8030   61.6100  103.3070 C.3    72  TRP72       0.1737
     22  C        -31.4510   62.9830  103.0130 C.2    72  TRP72       0.2595
     23  O        -31.0880   63.6500  102.0080 O.2    72  TRP72      -0.2718
     24  CB       -30.4020   61.4440  104.7510 C.3    72  TRP72       0.0564
     25  CG       -30.1850   59.9820  105.1270 C.ar   72  TRP72       0.0003
     26  CD1      -29.6810   58.9520  104.3140 C.ar   72  TRP72       0.0946
     27  CD2      -30.4610   59.3730  106.4030 C.ar   72  TRP72       0.0152
     28  NE1      -29.6390   57.7700  105.0240 N.ar   72  TRP72      -0.2442
     29  CE2      -30.1130   57.9830  106.2960 C.ar   72  TRP72       0.0810
     30  CE3      -30.9650   59.8540  107.6180 C.ar   72  TRP72       0.0012
     31  CZ2      -30.2570   57.0800  107.3760 C.ar   72  TRP72       0.0191
     32  CZ3      -31.1020   58.9370  108.7190 C.ar   72  TRP72       0.0001
     33  CH2      -30.7570   57.5710  108.5700 C.ar   72  TRP72       0.0015
     34  N        -32.4340   63.3950  103.8260 N.am   73  ALA73      -0.1980
     35  CA       -33.0650   64.7090  103.6640 C.3    73  ALA73       0.1597
     36  C        -32.0650   65.8220  103.2140 C.2    73  ALA73       0.2287
     37  O        -31.0910   66.0870  103.9100 O.2    73  ALA73      -0.2864
     38  CB       -33.7650   65.1270  104.9380 C.3    73  ALA73       0.0319
     39  N        -24.7460   56.4300  113.5000 N.3    98  LYS98      -0.1245
     40  CA       -25.3300   56.8050  112.2160 C.3    98  LYS98       0.1561
     41  C        -24.3500   57.6890  111.4280 C.2    98  LYS98       0.2260
     42  O        -24.7300   58.7090  110.8780 O.2    98  LYS98      -0.2867
     43  CB       -26.6430   57.5530  112.4120 C.3    98  LYS98       0.0271
     44  CG       -27.5280   57.5420  111.1700 C.3    98  LYS98       0.0035
     45  CD       -28.3310   56.2220  111.0430 C.3    98  LYS98       0.0206
     46  CE       -29.3510   56.1150  112.1720 C.3    98  LYS98       0.1093
     47  NZ       -30.0600   54.8100  112.1970 N.3    98  LYS98      -0.1314
     48  N        -27.8500   63.9320  111.0050 N.3   125  PHE125     -0.1227
     49  CA       -28.4710   64.1760  109.7060 C.3   125  PHE125      0.1736
     50  C        -29.4440   65.3460  109.8380 C.2   125  PHE125      0.2596
     51  O        -29.4010   66.0680  110.8220 O.2   125  PHE125     -0.2718
     52  CB       -29.1290   62.8930  109.1490 C.3   125  PHE125      0.0547
     53  CG       -29.9210   62.0940  110.1760 C.ar  125  PHE125     -0.0202
     54  CD1      -31.2900   62.3250  110.3580 C.ar  125  PHE125     -0.0042
     55  CD2      -29.3020   61.1220  110.9640 C.ar  125  PHE125     -0.0042
     56  CE1      -32.0380   61.6050  111.3370 C.ar  125  PHE125     -0.0003
     57  CE2      -30.0450   60.3740  111.9240 C.ar  125  PHE125     -0.0003
     58  CZ       -31.4100   60.6190  112.0980 C.ar  125  PHE125     -0.0000
     59  N        -30.2780   65.5610  108.8310 N.am  126  GLY126     -0.1957
     60  CA       -31.2730   66.6200  108.8580 C.3   126  GLY126      0.1869
     61  C        -30.8090   68.0510  108.6320 C.2   126  GLY126      0.2309
     62  O        -31.5630   68.9780  108.9860 O.2   126  GLY126     -0.2863
     63  N        -26.5370   63.5490  117.3350 N.3   144  TRP144     -0.1241
     64  CA       -26.7190   62.0900  117.4870 C.3   144  TRP144      0.1605
     65  C        -26.0640   61.5350  118.7250 C.2   144  TRP144      0.2264
     66  O        -24.8720   61.7840  118.9860 O.2   144  TRP144     -0.2867
     67  CB       -26.2690   61.3300  116.2310 C.3   144  TRP144      0.0550
     68  CG       -26.4340   59.8310  116.3380 C.ar  144  TRP144      0.0003
     69  CD1      -25.5060   58.9400  116.8010 C.ar  144  TRP144      0.0946
     70  CD2      -27.5830   59.0720  116.0060 C.ar  144  TRP144      0.0152
     71  NE1      -26.0190   57.6700  116.7980 N.ar  144  TRP144     -0.2442
     72  CE2      -27.2850   57.7170  116.2820 C.ar  144  TRP144      0.0810
     73  CE3      -28.8360   59.3950  115.4760 C.ar  144  TRP144      0.0012
     74  CZ2      -28.2100   56.6790  116.0650 C.ar  144  TRP144      0.0191
     75  CZ3      -29.7500   58.3670  115.2480 C.ar  144  TRP144      0.0001
     76  CH2      -29.4390   57.0310  115.5570 C.ar  144  TRP144      0.0015
     77  N        -31.8090   60.7230  119.6150 N.3   153  PHE153     -0.1241
     78  CA       -32.1650   62.0370  119.1030 C.3   153  PHE153      0.1605
     79  C        -32.0460   63.0850  120.2240 C.2   153  PHE153      0.2264
     80  O        -33.0360   63.4960  120.8460 O.2   153  PHE153     -0.2867
     81  CB       -33.5360   62.0110  118.4150 C.3   153  PHE153      0.0534
     82  CG       -33.5720   61.1300  117.1810 C.ar  153  PHE153     -0.0203
     83  CD1      -33.9200   61.6530  115.9390 C.ar  153  PHE153     -0.0042
     84  CD2      -33.2350   59.7620  117.2630 C.ar  153  PHE153     -0.0042
     85  CE1      -33.9480   60.8310  114.7860 C.ar  153  PHE153     -0.0003
     86  CE2      -33.2480   58.9380  116.1320 C.ar  153  PHE153     -0.0003
     87  CZ       -33.6080   59.4810  114.8880 C.ar  153  PHE153     -0.0000
     88  N        -37.5500   61.3560  118.7480 N.3   183  ILE183     -0.1245
     89  CA       -37.1550   61.1380  117.3500 C.3   183  ILE183      0.1561
     90  C        -37.2590   62.4940  116.5780 C.2   183  ILE183      0.2260
     91  O        -37.7600   62.5750  115.4360 O.2   183  ILE183     -0.2867
     92  CB       -37.9680   59.9910  116.6610 C.3   183  ILE183      0.0252
     93  CG1      -38.3110   58.8690  117.6600 C.3   183  ILE183      0.0019
     94  CG2      -37.1800   59.4450  115.4460 C.3   183  ILE183      0.0019
     95  CD1      -39.3340   57.8860  117.1670 C.3   183  ILE183      0.0001
     96  N        -36.0170   65.4570  114.5490 N.3   185  GLU185     -0.1245
     97  CA       -35.1350   65.5700  113.3960 C.3   185  GLU185      0.1567
     98  C        -35.7130   66.5390  112.3610 C.2   185  GLU185      0.2260
     99  O        -36.7640   67.1390  112.5760 O.2   185  GLU185     -0.2867
    100  CB       -34.9770   64.1790  112.7480 C.3   185  GLU185      0.0388
    101  CG       -36.2970   63.6190  112.2360 C.3   185  GLU185      0.1160
    102  CD       -36.1330   62.3870  111.3560 C.2   185  GLU185      0.3649
    103  OE1      -35.0280   62.2150  110.7760 O.co2 185  GLU185     -0.2457
    104  OE2      -37.1110   61.6090  111.2270 O.co2 185  GLU185     -0.2457
    105  N        -40.5240   59.6020  114.3310 N.3   204  GLY204     -0.1210
    106  CA       -39.9810   58.7190  113.2980 C.3   204  GLY204      0.1956
    107  C        -40.8820   58.6070  112.1050 C.2   204  GLY204      0.2613
    108  O        -42.0840   58.8610  112.2140 O.2   204  GLY204     -0.2717
    109  N        -40.3080   58.2170  110.9640 N.am  205  THR205     -0.1938
    110  CA       -40.9840   58.3050  109.6550 C.3   205  THR205      0.2028
    111  C        -41.9070   57.1260  109.3270 C.2   205  THR205      0.2642
    112  O        -42.3000   56.9400  108.1740 O.2   205  THR205     -0.2714
    113  CB       -39.9770   58.5500  108.4450 C.3   205  THR205      0.1808
    114  OG1      -40.7170   58.8690  107.2670 O.3   205  THR205     -0.2208
    115  CG2      -39.0730   57.3250  108.1590 C.3   205  THR205      0.0379
    116  N        -42.2570   56.3400  110.3360 N.am  206  ARG206     -0.1977
    117  CA       -43.2790   55.3110  110.1480 C.3   206  ARG206      0.1597
    118  C        -44.6610   55.8820  110.4800 C.2   206  ARG206      0.2287
    119  O        -44.9160   57.0590  110.1790 O.2   206  ARG206     -0.2864
    120  CB       -42.9090   54.0640  110.9240 C.3   206  ARG206      0.0334
    121  CG       -41.5910   53.4610  110.4480 C.3   206  ARG206      0.0492
    122  CD       -41.2390   52.2580  111.2820 C.3   206  ARG206      0.2205
    123  NE       -40.2030   51.4470  110.6550 N.pl3 206  ARG206     -0.0865
    124  CZ       -39.9420   50.1800  110.9850 C.cat 206  ARG206      0.5346
    125  NH1      -40.6630   49.5660  111.9300 N.pl3 206  ARG206      0.1354
    126  NH2      -38.9760   49.5140  110.3520 N.pl3 206  ARG206      0.1354
    127  N        -42.1470   65.2830  108.3600 N.3   247  HIS247     -0.1241
    128  CA       -40.9660   65.8890  107.7220 C.3   247  HIS247      0.1621
    129  C        -41.3980   66.9930  106.7350 C.2   247  HIS247      0.2264
    130  O        -41.3400   66.8350  105.5120 O.2   247  HIS247     -0.2867
    131  CB       -40.0590   64.8500  107.0370 C.3   247  HIS247      0.0745
    132  CG       -38.6370   65.2930  106.9300 C.ar  247  HIS247      0.0817
    133  ND1      -37.6190   64.7020  107.6360 N.ar  247  HIS247     -0.2268
    134  CD2      -38.0770   66.3120  106.2430 C.ar  247  HIS247      0.1154
    135  CE1      -36.4840   65.3180  107.3670 C.ar  247  HIS247      0.1986
    136  NE2      -36.7400   66.3050  106.5260 N.ar  247  HIS247     -0.2212
    137  N        -42.0350   56.4970  100.2380 N.3   286  ARG286     -0.1245
    138  CA       -42.5010   57.7840  100.7560 C.3   286  ARG286      0.1563
    139  C        -42.5570   58.8510   99.6660 C.2   286  ARG286      0.2260
    140  O        -41.5560   59.1540   98.9940 O.2   286  ARG286     -0.2867
    141  CB       -41.6530   58.2260  101.9300 C.3   286  ARG286      0.0307
    142  CG       -41.7800   57.3040  103.1230 C.3   286  ARG286      0.0489
    143  CD       -40.6710   57.5640  104.1150 C.3   286  ARG286      0.2205
    144  NE       -39.3390   57.6080  103.5050 N.pl3 286  ARG286     -0.0865
    145  CZ       -38.3030   58.2090  104.0710 C.cat 286  ARG286      0.5346
    146  NH1      -38.4610   58.7870  105.2550 N.pl3 286  ARG286      0.1354
    147  NH2      -37.1150   58.2370  103.4710 N.pl3 286  ARG286      0.1354
    148  N        -35.2900   48.2920  109.5350 N.3   501  ARG501     -0.1245
    149  CA       -35.6850   49.6950  109.8100 C.3   501  ARG501      0.1563
    150  C        -35.0660   50.7300  108.8450 C.2   501  ARG501      0.2260
    151  O        -35.6850   51.7930  108.5640 O.2   501  ARG501     -0.2867
    152  CB       -35.4580   50.1180  111.2750 C.3   501  ARG501      0.0307
    153  CG       -36.7240   50.0880  112.1510 C.3   501  ARG501      0.0489
    154  CD       -36.9190   48.7420  112.8400 C.3   501  ARG501      0.2205
    155  NE       -36.0700   48.6720  114.0310 N.pl3 501  ARG501     -0.0865
    156  CZ       -34.8760   48.0880  114.0880 C.cat 501  ARG501      0.5346
    157  NH1      -34.3640   47.4740  113.0210 N.pl3 501  ARG501      0.1354
    158  NH2      -34.1930   48.1080  115.2250 N.pl3 501  ARG501      0.1354
    159  N        -35.6440   53.3390  103.3600 N.3   504  PHE504     -0.1241
    160  CA       -36.0590   54.7170  103.1050 C.3   504  PHE504      0.1605
    161  C        -36.2640   55.0640  101.6400 C.2   504  PHE504      0.2264
    162  O        -36.3060   56.2430  101.2700 O.2   504  PHE504     -0.2867
    163  CB       -35.0400   55.6520  103.7380 C.3   504  PHE504      0.0534
    164  CG       -34.9210   55.4980  105.2340 C.ar  504  PHE504     -0.0203
    165  CD1      -36.0470   55.3600  106.0250 C.ar  504  PHE504     -0.0042
    166  CD2      -33.6920   55.5040  105.8360 C.ar  504  PHE504     -0.0042
    167  CE1      -35.9500   55.2040  107.3940 C.ar  504  PHE504     -0.0003
    168  CE2      -33.5870   55.3650  107.2290 C.ar  504  PHE504     -0.0003
    169  CZ       -34.7290   55.2080  108.0000 C.ar  504  PHE504     -0.0000
@<TRIPOS>BOND
     1    12    11    2
     2    11    10    1
     3     9    10    1
     4   140   139    2
     5    10    13    1
     6   139   138    1
     7    13    14    1
     8   137   138    1
     9    15    14   ar
    10    15    17   ar
    11   138   141    1
    12    14    16   ar
    13   162   161    2
    14     4     3    2
    15    17    19   ar
    16   161   160    1
    17     3     2    1
    18   141   142    1
    19    23    22    2
    20     1     2    1
    21    16    18   ar
    22    20    21    1
    23     2     5    1
    24    19    18   ar
    25    22    21    1
    26    22    34   am
    27     5     6    1
    28   160   159    1
    29   160   163    1
    30   142   143    1
    31    36    35    1
    32    36    37    2
    33    21    24    1
    34   147   145    1
    35     8     6   ar
    36   144   145    2
    37   144   143    1
    38    35    34    1
    39    35    38    1
    40   163   164    1
    41     6     7   ar
    42   145   146    1
    43    26    28   ar
    44    26    25   ar
    45    24    25    1
    46    28    29   ar
    47    25    27   ar
    48   164   166   ar
    49   164   165   ar
    50   130   129    2
    51   166   168   ar
    52   165   167   ar
    53   134   136   ar
    54   134   132   ar
    55    29    27   ar
    56    29    31   ar
    57    27    30   ar
    58   136   135   ar
    59   129   128    1
    60   132   131    1
    61   132   133   ar
    62   131   128    1
    63   168   169   ar
    64   114   113    1
    65   135   133   ar
    66    31    33   ar
    67   167   169   ar
    68    30    32   ar
    69   128   127    1
    70   115   113    1
    71   112   111    2
    72   113   110    1
    73   151   150    2
    74    33    32   ar
    75    61    60    1
    76    61    62    2
    77    59    60    1
    78    59    50   am
    79   150   149    1
    80    52    49    1
    81    52    53    1
    82   111   110    1
    83   111   116   am
    84   148   149    1
    85   110   109    1
    86    49    50    1
    87    49    48    1
    88   149   152    1
    89    50    51    2
    90   117   116    1
    91   117   118    1
    92   117   120    1
    93    53    54   ar
    94    53    55   ar
    95   119   118    2
    96   126   124    1
    97    54    56   ar
    98   121   120    1
    99   121   122    1
   100   123   124    2
   101   123   122    1
   102   103   102   ar
   103    42    41    2
   104   109   107   am
   105    55    57   ar
   106   124   125    1
   107    45    44    1
   108    45    46    1
   109    44    43    1
   110   104   102   ar
   111   152   153    1
   112    56    58   ar
   113   102   101    1
   114    41    40    1
   115    57    58   ar
   116   107   108    2
   117   107   106    1
   118   153   154    1
   119    46    47    1
   120    40    43    1
   121    40    39    1
   122   101   100    1
   123    98    99    2
   124    98    97    1
   125   100    97    1
   126   154   155    1
   127   157   156    1
   128   106   105    1
   129    97    96    1
   130   155   156    2
   131   156   158    1
   132    85    87   ar
   133    85    83   ar
   134    87    86   ar
   135    75    73   ar
   136    75    76   ar
   137    91    90    2
   138    94    92    1
   139    73    70   ar
   140    76    74   ar
   141    83    82   ar
   142    70    72   ar
   143    70    68   ar
   144    74    72   ar
   145    86    84   ar
   146    67    68    1
   147    67    64    1
   148    72    71   ar
   149    68    69   ar
   150    90    89    1
   151    92    89    1
   152    92    93    1
   153    71    69   ar
   154    95    93    1
   155    82    84   ar
   156    82    81    1
   157    63    64    1
   158    89    88    1
   159    64    65    1
   160    81    78    1
   161    65    66    2
   162    78    77    1
   163    78    79    1
   164    79    80    2
