@<TRIPOS>MOLECULE
tmp/2exlA00.pdb
 167 155 0 0 0
SMALL
GASTEIGER

@<TRIPOS>ATOM
      1  N         21.4420   13.4400   -4.0130 N.3    33  LEU33      -0.1245
      2  CA        21.9880   12.4360   -3.1040 C.3    33  LEU33       0.1561
      3  C         21.1600   12.3010   -1.8220 C.2    33  LEU33       0.2260
      4  O         20.9140   11.1870   -1.3480 O.2    33  LEU33      -0.2867
      5  CB        23.4540   12.7420   -2.7600 C.3    33  LEU33       0.0270
      6  CG        24.4710   12.5440   -3.8900 C.3    33  LEU33       0.0019
      7  CD1       25.8690   12.8600   -3.3710 C.3    33  LEU33       0.0001
      8  CD2       24.4020   11.1060   -4.4260 C.3    33  LEU33       0.0001
      9  N         18.1860   10.3390   -2.7430 N.3    36  ASN36      -0.1225
     10  CA        18.4700    8.9160   -2.8760 C.3    36  ASN36       0.1785
     11  C         18.5530    8.2910   -1.4900 C.2    36  ASN36       0.2597
     12  O         17.9140    7.2810   -1.2110 O.2    36  ASN36      -0.2718
     13  CB        19.7800    8.7020   -3.6370 C.3    36  ASN36       0.1169
     14  CG        19.6840    9.1620   -5.0770 C.2    36  ASN36       0.2627
     15  OD1       18.6110    9.5340   -5.5450 O.2    36  ASN36      -0.2716
     16  ND2       20.7940    9.1370   -5.7850 N.am   36  ASN36      -0.0877
     17  N         19.3340    8.9060   -0.6160 N.am   37  ALA37      -0.1979
     18  CA        19.4900    8.3960    0.7330 C.3    37  ALA37       0.1597
     19  C         18.1220    8.1590    1.3740 C.2    37  ALA37       0.2287
     20  O         17.9030    7.1370    2.0310 O.2    37  ALA37      -0.2864
     21  CB        20.3020    9.3790    1.5650 C.3    37  ALA37       0.0319
     22  N         15.1980    7.5610   -0.1140 N.3    39  ASP39      -0.1225
     23  CA        14.4580    6.4710   -0.7320 C.3    39  ASP39       0.1805
     24  C         14.9860    5.1590   -0.1490 C.2    39  ASP39       0.2597
     25  O         14.2420    4.1950    0.0330 O.2    39  ASP39      -0.2718
     26  CB        14.6470    6.5230   -2.2590 C.3    39  ASP39       0.1424
     27  CG        14.0630    5.3050   -2.9810 C.2    39  ASP39       0.3668
     28  OD1       12.9110    4.9030   -2.6920 O.co2  39  ASP39      -0.2456
     29  OD2       14.7630    4.7580   -3.8650 O.co2  39  ASP39      -0.2456
     30  N         16.2710    5.1460    0.1760 N.am   40  ALA40      -0.1979
     31  CA        16.9060    3.9650    0.7290 C.3    40  ALA40       0.1597
     32  C         16.3970    3.6760    2.1320 C.2    40  ALA40       0.2287
     33  O         16.2250    2.5230    2.5100 O.2    40  ALA40      -0.2864
     34  CB        18.4330    4.1440    0.7410 C.3    40  ALA40       0.0319
     35  N         12.9030    2.1180    2.0560 N.3    43  LYS43      -0.1245
     36  CA        12.8760    0.6970    1.7140 C.3    43  LYS43       0.1561
     37  C         13.2300   -0.2240    2.8620 C.2    43  LYS43       0.2260
     38  O         12.6320   -1.2900    3.0030 O.2    43  LYS43      -0.2867
     39  CB        13.7730    0.4220    0.5010 C.3    43  LYS43       0.0271
     40  CG        13.3650    1.2870   -0.6890 C.3    43  LYS43       0.0035
     41  CD        13.7600    0.7290   -2.0330 C.3    43  LYS43       0.0206
     42  CE        13.3000    1.6690   -3.1520 C.3    43  LYS43       0.1093
     43  NZ        13.8750    1.3120   -4.4880 N.3    43  LYS43      -0.1314
     44  N         23.9840    7.2030    4.6600 N.3    78  ASP78      -0.1239
     45  CA        22.6510    6.8770    5.1430 C.3    78  ASP78       0.1674
     46  C         22.6960    5.4770    5.7470 C.2    78  ASP78       0.2266
     47  O         23.6210    4.7040    5.4870 O.2    78  ASP78      -0.2867
     48  CB        21.6310    6.9310    3.9890 C.3    78  ASP78       0.1410
     49  CG        21.8870    5.8720    2.9290 C.2    78  ASP78       0.3668
     50  OD1       21.5830    4.6860    3.1770 O.co2  78  ASP78      -0.2456
     51  OD2       22.4020    6.2180    1.8480 O.co2  78  ASP78      -0.2456
     52  N         18.6330    0.6800    3.3410 N.3    81  VAL81      -0.1231
     53  CA        18.7230   -0.7330    2.9960 C.3    81  VAL81       0.1692
     54  C         20.0790   -1.1330    2.4450 C.2    81  VAL81       0.2593
     55  O         20.5000   -2.2890    2.5850 O.2    81  VAL81      -0.2718
     56  CB        17.6390   -1.1120    1.9700 C.3    81  VAL81       0.0266
     57  CG1       17.9080   -0.4320    0.6640 C.3    81  VAL81       0.0020
     58  CG2       17.5900   -2.6040    1.7950 C.3    81  VAL81       0.0020
     59  N         20.7630   -0.1760    1.8200 N.am   82  GLY82      -0.1942
     60  CA        22.0660   -0.4540    1.2530 C.3    82  GLY82       0.2014
     61  C         21.9020   -1.2290   -0.0380 C.2    82  GLY82       0.2638
     62  O         20.7710   -1.5430   -0.4250 O.2    82  GLY82      -0.2714
     63  N         23.0190   -1.5360   -0.6990 N.am   83  MET83      -0.1976
     64  CA        23.0140   -2.2710   -1.9660 C.3    83  MET83       0.1605
     65  C         23.9920   -3.4440   -1.9730 C.2    83  MET83       0.2287
     66  O         25.1020   -3.3510   -1.4570 O.2    83  MET83      -0.2864
     67  CB        23.3750   -1.3440   -3.1280 C.3    83  MET83       0.0413
     68  CG        22.3780   -0.2390   -3.4070 C.3    83  MET83       0.0598
     69  SD        23.0100    0.8950   -4.6530 S.3    83  MET83      -0.1393
     70  CE        23.8850    2.0550   -3.6650 C.3    83  MET83       0.0692
     71  N         24.0270   -5.4220   -7.1990 N.3    87  GLU87      -0.1245
     72  CA        23.2120   -4.2350   -7.4560 C.3    87  GLU87       0.1567
     73  C         24.1160   -3.0430   -7.7680 C.2    87  GLU87       0.2260
     74  O         23.7190   -2.1090   -8.4710 O.2    87  GLU87      -0.2867
     75  CB        22.2940   -3.9260   -6.2540 C.3    87  GLU87       0.0388
     76  CG        21.2260   -5.0010   -5.9950 C.3    87  GLU87       0.1160
     77  CD        20.3920   -4.7280   -4.7590 C.2    87  GLU87       0.3649
     78  OE1       20.9450   -4.2080   -3.7740 O.co2  87  GLU87      -0.2457
     79  OE2       19.1860   -5.0500   -4.7580 O.co2  87  GLU87      -0.2457
     80  N         22.8420   -1.8820  -11.3050 N.3    91  ASN91      -0.1225
     81  CA        22.0870   -0.6390  -11.1830 C.3    91  ASN91       0.1785
     82  C         22.8540    0.6710  -11.2950 C.2    91  ASN91       0.2597
     83  O         22.2500    1.7400  -11.3740 O.2    91  ASN91      -0.2718
     84  CB        21.2820   -0.6730   -9.8880 C.3    91  ASN91       0.1169
     85  CG        20.1620   -1.6910   -9.9430 C.2    91  ASN91       0.2627
     86  OD1       19.1360   -1.4570  -10.5800 O.2    91  ASN91      -0.2716
     87  ND2       20.3630   -2.8390   -9.3000 N.am   91  ASN91      -0.0877
     88  N         24.1770    0.6030  -11.3000 N.am   92  LEU92      -0.1980
     89  CA        24.9640    1.8200  -11.4410 C.3    92  LEU92       0.1596
     90  C         25.6530    1.8340  -12.7940 C.2    92  LEU92       0.2287
     91  O         26.1070    2.8770  -13.2540 O.2    92  LEU92      -0.2864
     92  CB        26.0010    1.9390  -10.3210 C.3    92  LEU92       0.0297
     93  CG        25.4480    2.3040   -8.9390 C.3    92  LEU92       0.0022
     94  CD1       26.5970    2.5140   -7.9590 C.3    92  LEU92       0.0001
     95  CD2       24.5950    3.5710   -9.0450 C.3    92  LEU92       0.0001
     96  N         20.8640    1.3450  -17.0890 N.3    95  ILE95      -0.1245
     97  CA        19.6210    2.0480  -16.7850 C.3    95  ILE95       0.1561
     98  C         18.4770    1.4420  -17.6050 C.2    95  ILE95       0.2260
     99  O         18.7110    0.8470  -18.6610 O.2    95  ILE95      -0.2867
    100  CB        19.7460    3.5710  -17.0970 C.3    95  ILE95       0.0252
    101  CG1       18.5420    4.3290  -16.5240 C.3    95  ILE95       0.0019
    102  CG2       19.8620    3.7950  -18.6000 C.3    95  ILE95       0.0019
    103  CD1       18.4930    4.3510  -14.9960 C.3    95  ILE95       0.0001
    104  N         15.6880   13.1930  -11.5070 N.3   103  GLY103     -0.1225
    105  CA        15.2550   12.3940  -10.3760 C.3   103  GLY103      0.1811
    106  C         14.0700   11.5090  -10.7120 C.2   103  GLY103      0.2280
    107  O         13.8810   10.4490  -10.1160 O.2   103  GLY103     -0.2866
    108  N         15.2330    8.4220  -12.9280 N.3   106  GLY106     -0.1210
    109  CA        16.0900    7.5070  -12.1910 C.3   106  GLY106      0.1956
    110  C         17.5590    7.5930  -12.5570 C.2   106  GLY106      0.2612
    111  O         18.2560    6.5770  -12.6220 O.2   106  GLY106     -0.2717
    112  N         18.0470    8.8040  -12.7840 N.am  107  VAL107     -0.1965
    113  CA        19.4410    8.9760  -13.1520 C.3   107  VAL107      0.1727
    114  C         20.0950   10.1780  -12.4600 C.2   107  VAL107      0.2617
    115  O         21.1690   10.6250  -12.8650 O.2   107  VAL107     -0.2715
    116  CB        19.5780    9.0990  -14.7010 C.3   107  VAL107      0.0290
    117  CG1       19.1770    7.7910  -15.3630 C.3   107  VAL107      0.0023
    118  CG2       18.6910   10.2120  -15.2290 C.3   107  VAL107      0.0023
    119  N         19.4450   10.6760  -11.4070 N.am  108  GLY108     -0.1940
    120  CA        19.9510   11.8140  -10.6500 C.3   108  GLY108      0.2014
    121  C         21.2830   11.5910   -9.9510 C.2   108  GLY108      0.2639
    122  O         21.9870   12.5480   -9.6360 O.2   108  GLY108     -0.2714
    123  N         21.6370   10.3340   -9.7000 N.am  109  PHE109     -0.1959
    124  CA        22.9110   10.0110   -9.0500 C.3   109  PHE109      0.1771
    125  C         24.1060   10.5410   -9.8550 C.2   109  PHE109      0.2619
    126  O         25.0920   11.0350   -9.2890 O.2   109  PHE109     -0.2715
    127  CB        23.0460    8.4890   -8.8740 C.3   109  PHE109      0.0574
    128  CG        24.4670    8.0150   -8.7050 C.ar  109  PHE109     -0.0200
    129  CD1       25.1780    8.2830   -7.5370 C.ar  109  PHE109     -0.0042
    130  CD2       25.1040    7.3180   -9.7270 C.ar  109  PHE109     -0.0042
    131  CE1       26.5030    7.8620   -7.3910 C.ar  109  PHE109     -0.0003
    132  CE2       26.4270    6.8960   -9.5900 C.ar  109  PHE109     -0.0003
    133  CZ        27.1280    7.1690   -8.4170 C.ar  109  PHE109     -0.0000
    134  N         24.0150   10.4400  -11.1770 N.am  110  TYR110     -0.1974
    135  CA        25.0980   10.8960  -12.0340 C.3   110  TYR110      0.1639
    136  C         25.3290   12.4140  -11.9730 C.2   110  TYR110      0.2290
    137  O         26.3200   12.9040  -12.4960 O.2   110  TYR110     -0.2864
    138  CB        24.8500   10.4320  -13.4750 C.3   110  TYR110      0.0560
    139  CG        24.7500    8.9250  -13.6070 C.ar  110  TYR110     -0.0198
    140  CD1       25.8770    8.1130  -13.4790 C.ar  110  TYR110     -0.0009
    141  CD2       23.5200    8.3100  -13.8110 C.ar  110  TYR110     -0.0009
    142  CE1       25.7810    6.7240  -13.5480 C.ar  110  TYR110      0.0417
    143  CE2       23.4110    6.9240  -13.8800 C.ar  110  TYR110      0.0417
    144  CZ        24.5430    6.1350  -13.7450 C.ar  110  TYR110      0.1957
    145  OH        24.4130    4.7580  -13.7860 O.3   110  TYR110     -0.2866
    146  N         31.0220    4.7810   -3.9480 N.3   121  VAL121     -0.1245
    147  CA        29.8300    4.3150   -3.2450 C.3   121  VAL121      0.1561
    148  C         30.1970    3.0640   -2.4250 C.2   121  VAL121      0.2260
    149  O         30.4270    1.9920   -2.9940 O.2   121  VAL121     -0.2867
    150  CB        28.7340    3.9230   -4.2490 C.3   121  VAL121      0.0252
    151  CG1       27.4830    3.4880   -3.5250 C.3   121  VAL121      0.0019
    152  CG2       28.4520    5.0790   -5.1890 C.3   121  VAL121      0.0019
    153  N         24.6570    3.0590    3.0520 N.3   155  THR155     -0.1218
    154  CA        25.5650    3.4750    2.0030 C.3   155  THR155      0.1862
    155  C         26.2320    4.8070    2.2610 C.2   155  THR155      0.2287
    156  O         25.6510    5.7130    2.8600 O.2   155  THR155     -0.2866
    157  CB        24.8210    3.5780    0.6490 C.3   155  THR155      0.1770
    158  OG1       24.3280    2.2850    0.2800 O.3   155  THR155     -0.2211
    159  CG2       25.7560    4.0950   -0.4610 C.3   155  THR155      0.0375
    160  N         28.3230    7.7440    0.0950 N.3   157  ILE157     -0.1245
    161  CA        28.7210    8.2330   -1.2040 C.3   157  ILE157      0.1561
    162  C         29.8710    9.2200   -0.9400 C.2   157  ILE157      0.2260
    163  O         29.7190   10.2010   -0.2010 O.2   157  ILE157     -0.2867
    164  CB        27.5370    8.9320   -1.9550 C.3   157  ILE157      0.0252
    165  CG1       26.5680    7.8860   -2.5180 C.3   157  ILE157      0.0019
    166  CG2       28.0670    9.7410   -3.1440 C.3   157  ILE157      0.0019
    167  CD1       25.4760    7.4940   -1.5970 C.3   157  ILE157      0.0001
@<TRIPOS>BOND
     1    99    98    2
     2   102   100    1
     3    98    97    1
     4   100    97    1
     5   100   101    1
     6    96    97    1
     7   101   103    1
     8   117   116    1
     9   118   116    1
    10   116   113    1
    11   143   141   ar
    12   143   144   ar
    13   141   139   ar
    14   145   144    1
    15   144   142   ar
    16   139   140   ar
    17   139   138    1
    18   142   140   ar
    19   138   135    1
    20    91    90    2
    21   113   112    1
    22   113   114    1
    23   108   109    1
    24   115   114    2
    25    90    89    1
    26   112   110   am
    27   111   110    2
    28   110   109    1
    29   137   136    2
    30   114   119   am
    31   135   136    1
    32   135   134    1
    33   104   105    1
    34    89    88    1
    35    89    92    1
    36   119   120    1
    37    83    82    2
    38    80    81    1
    39    88    82   am
    40    82    81    1
    41    81    84    1
    42   134   125   am
    43   106   105    1
    44   106   107    2
    45   120   121    1
    46    86    85    2
    47    92    93    1
    48   121   123   am
    49   121   122    2
    50    85    84    1
    51    85    87   am
    52   125   126    2
    53   125   124    1
    54   130   132   ar
    55   130   128   ar
    56   123   124    1
    57   132   133   ar
    58   124   127    1
    59    95    93    1
    60    93    94    1
    61   127   128    1
    62   128   129   ar
    63    74    73    2
    64   133   131   ar
    65    73    72    1
    66   129   131   ar
    67    72    71    1
    68    72    75    1
    69    75    76    1
    70    76    77    1
    71    16    14   am
    72    15    14    2
    73   152   150    1
    74    14    13    1
    75    77    79   ar
    76    77    78   ar
    77    69    70    1
    78    69    68    1
    79    43    42    1
    80     8     6    1
    81   150   151    1
    82   150   147    1
    83     1     2    1
    84   146   147    1
    85     6     7    1
    86     6     5    1
    87    29    27   ar
    88    13    10    1
    89    68    67    1
    90   147   148    1
    91    42    41    1
    92   166   164    1
    93    67    64    1
    94     2     5    1
    95     2     3    1
    96   149   148    2
    97    27    28   ar
    98    27    26    1
    99    10     9    1
   100    10    11    1
   101   165   164    1
   102   165   167    1
   103    26    23    1
   104    41    40    1
   105    65    64    1
   106    65    66    2
   107    64    63    1
   108   164   161    1
   109     3     4    2
   110    11    12    2
   111    11    17   am
   112   161   162    1
   113   161   160    1
   114   162   163    2
   115    23    24    1
   116    23    22    1
   117    63    61   am
   118    40    39    1
   119    17    18    1
   120   159   157    1
   121    62    61    2
   122    24    25    2
   123    24    30   am
   124    61    60    1
   125    30    31    1
   126   158   157    1
   127    39    36    1
   128   157   154    1
   129    57    56    1
   130    31    34    1
   131    31    32    1
   132    18    19    1
   133    18    21    1
   134    60    59    1
   135    19    20    2
   136    36    35    1
   137    36    37    1
   138    58    56    1
   139    59    54   am
   140    51    49   ar
   141    56    53    1
   142   154   155    1
   143   154   153    1
   144    32    33    2
   145   155   156    2
   146    54    55    2
   147    54    53    1
   148    37    38    2
   149    49    50   ar
   150    49    48    1
   151    53    52    1
   152    48    45    1
   153    44    45    1
   154    45    46    1
   155    47    46    2
