@<TRIPOS>MOLECULE
tmp/2exmA00.pdb
 157 149 0 0 0
SMALL
GASTEIGER

@<TRIPOS>ATOM
      1  N         97.9820  105.4140   81.5110 N.3    10  ILE10      -0.1231
      2  CA        98.2710  104.4430   80.4700 C.3    10  ILE10       0.1692
      3  C         97.3150  103.2600   80.5970 C.2    10  ILE10       0.2593
      4  O         97.1430  102.4810   79.6610 O.2    10  ILE10      -0.2718
      5  CB        99.7420  103.9510   80.5640 C.3    10  ILE10       0.0266
      6  CG1      100.7160  105.1130   80.3490 C.3    10  ILE10       0.0019
      7  CG2      100.0250  102.8960   79.5120 C.3    10  ILE10       0.0020
      8  CD1      102.1740  104.7070   80.4540 C.3    10  ILE10       0.0001
      9  N         96.6850  103.1220   81.7540 N.am   11  GLY11      -0.1942
     10  CA        95.7730  102.0220   81.9290 C.3    11  GLY11       0.2014
     11  C         95.7960  101.5420   83.3480 C.2    11  GLY11       0.2639
     12  O         96.3760  102.1830   84.2350 O.2    11  GLY11      -0.2714
     13  N         95.1900  100.3780   83.5450 N.am   12  GLU12      -0.1963
     14  CA        95.0740   99.7680   84.8550 C.3    12  GLU12       0.1733
     15  C         95.6230   98.3560   84.8300 C.2    12  GLU12       0.2616
     16  O         95.0100   97.4520   84.2710 O.2    12  GLU12      -0.2715
     17  CB        93.6010   99.7770   85.2990 C.3    12  GLU12       0.0429
     18  CG        93.1750  101.0820   86.0140 C.3    12  GLU12       0.1163
     19  CD        92.0610  101.8530   85.2990 C.2    12  GLU12       0.3649
     20  OE1       90.8730  101.5230   85.5160 O.co2  12  GLU12      -0.2457
     21  OE2       92.3690  102.8030   84.5380 O.co2  12  GLU12      -0.2457
     22  N         96.7940   98.1710   85.4230 N.am   13  GLY13      -0.1955
     23  CA        97.4050   96.8600   85.4410 C.3    13  GLY13       0.1869
     24  C         96.9160   95.9350   86.5380 C.2    13  GLY13       0.2309
     25  O         95.8990   96.1700   87.1950 O.2    13  GLY13      -0.2863
     26  N         98.7080  102.6040   85.8870 N.3    18  VAL18      -0.1245
     27  CA        99.9760  102.8830   85.2330 C.3    18  VAL18       0.1561
     28  C         99.7580  104.2330   84.5970 C.2    18  VAL18       0.2260
     29  O         98.8050  104.4190   83.8570 O.2    18  VAL18      -0.2867
     30  CB       100.3040  101.8610   84.1300 C.3    18  VAL18       0.0252
     31  CG1      101.6960  102.1560   83.5030 C.3    18  VAL18       0.0019
     32  CG2      100.2360  100.4520   84.6860 C.3    18  VAL18       0.0019
     33  N        107.2960  105.5070   83.2030 N.3    31  ALA31      -0.1245
     34  CA       106.0470  104.7990   83.4420 C.3    31  ALA31       0.1562
     35  C        105.9940  104.6050   84.9480 C.2    31  ALA31       0.2260
     36  O        106.8310  103.9110   85.5230 O.2    31  ALA31      -0.2867
     37  CB       106.0370  103.4640   82.7410 C.3    31  ALA31       0.0290
     38  N        104.0810  103.2570   88.2590 N.3    33  LYS33      -0.1245
     39  CA       103.0610  102.3070   88.6580 C.3    33  LYS33       0.1561
     40  C        102.8080  102.3280   90.1600 C.2    33  LYS33       0.2260
     41  O        103.6970  102.0470   90.9600 O.2    33  LYS33      -0.2867
     42  CB       103.4270  100.9060   88.1670 C.3    33  LYS33       0.0271
     43  CG       103.6740  100.8850   86.6550 C.3    33  LYS33       0.0035
     44  CD       103.6420   99.4770   86.0960 C.3    33  LYS33       0.0206
     45  CE       104.1070   99.4280   84.6390 C.3    33  LYS33       0.1093
     46  NZ       103.8590   98.0710   84.0370 N.3    33  LYS33      -0.1314
     47  N        112.3840   95.7330   80.3730 N.3    64  VAL64      -0.1245
     48  CA       111.9520   97.1040   80.6890 C.3    64  VAL64       0.1561
     49  C        112.6230   97.4930   82.0290 C.2    64  VAL64       0.2260
     50  O        112.3980   96.8710   83.0720 O.2    64  VAL64      -0.2867
     51  CB       110.4020   97.2340   80.7650 C.3    64  VAL64       0.0252
     52  CG1      110.0040   98.6200   81.2880 C.3    64  VAL64       0.0019
     53  CG2      109.7960   97.0180   79.3840 C.3    64  VAL64       0.0019
     54  N        109.3880  103.0000   85.8490 N.3    80  PHE80      -0.1227
     55  CA       109.9590  102.2220   84.7650 C.3    80  PHE80       0.1736
     56  C        110.2620  103.0620   83.5530 C.2    80  PHE80       0.2595
     57  O        109.6840  104.1150   83.3770 O.2    80  PHE80      -0.2718
     58  CB       108.9530  101.1500   84.3170 C.3    80  PHE80       0.0547
     59  CG       108.7900  100.0290   85.2780 C.ar   80  PHE80      -0.0202
     60  CD1      107.7280  100.0100   86.1710 C.ar   80  PHE80      -0.0042
     61  CD2      109.6810   98.9650   85.2730 C.ar   80  PHE80      -0.0042
     62  CE1      107.5610   98.9400   87.0350 C.ar   80  PHE80      -0.0003
     63  CE2      109.5180   97.9120   86.1250 C.ar   80  PHE80      -0.0003
     64  CZ       108.4580   97.8910   87.0100 C.ar   80  PHE80      -0.0000
     65  N        111.1350  102.5600   82.6900 N.am   81  GLU81      -0.1965
     66  CA       111.4060  103.2420   81.4420 C.3    81  GLU81       0.1733
     67  C        110.0940  103.0940   80.6860 C.2    81  GLU81       0.2616
     68  O        109.3800  102.0690   80.8290 O.2    81  GLU81      -0.2715
     69  CB       112.5420  102.5800   80.6580 C.3    81  GLU81       0.0429
     70  CG       112.2000  101.2820   79.9660 C.3    81  GLU81       0.1163
     71  CD       113.3020  100.7940   79.0190 C.2    81  GLU81       0.3649
     72  OE1      113.4070  101.3040   77.8820 O.co2  81  GLU81      -0.2457
     73  OE2      114.0530   99.8840   79.4020 O.co2  81  GLU81      -0.2457
     74  N        109.7950  104.1040   79.8810 N.am   82  PHE82      -0.1960
     75  CA       108.5640  104.1850   79.1080 C.3    82  PHE82       0.1771
     76  C        108.7200  103.7440   77.6460 C.2    82  PHE82       0.2619
     77  O        109.7190  104.0650   76.9950 O.2    82  PHE82      -0.2715
     78  CB       108.0660  105.6440   79.1980 C.3    82  PHE82       0.0574
     79  CG       106.9010  105.9570   78.3200 C.ar   82  PHE82      -0.0200
     80  CD1      105.6010  105.6770   78.7420 C.ar   82  PHE82      -0.0042
     81  CD2      107.0990  106.4990   77.0680 C.ar   82  PHE82      -0.0042
     82  CE1      104.5140  105.9210   77.9320 C.ar   82  PHE82      -0.0003
     83  CE2      106.0150  106.7490   76.2410 C.ar   82  PHE82      -0.0003
     84  CZ       104.7160  106.4540   76.6770 C.ar   82  PHE82      -0.0000
     85  N        107.7520  102.9550   77.1710 N.am   83  LEU83      -0.1963
     86  CA       107.6810  102.4700   75.7940 C.3    83  LEU83       0.1728
     87  C        106.2700  102.8160   75.3200 C.2    83  LEU83       0.2616
     88  O        105.3070  102.6650   76.0710 O.2    83  LEU83      -0.2715
     89  CB       107.9430  100.9690   75.6960 C.3    83  LEU83       0.0311
     90  CG       109.4250  100.5970   75.7410 C.3    83  LEU83       0.0022
     91  CD1      109.7320  100.0220   77.0790 C.3    83  LEU83       0.0001
     92  CD2      109.7810   99.5860   74.6750 C.3    83  LEU83       0.0001
     93  N        106.1410  103.2740   74.0770 N.am   84  HIS84      -0.1973
     94  CA       104.8410  103.7180   73.5550 C.3    84  HIS84       0.1656
     95  C        103.7670  102.7050   73.2310 C.2    84  HIS84       0.2291
     96  O        102.5790  103.0210   73.3020 O.2    84  HIS84      -0.2864
     97  CB       105.0150  104.6300   72.3390 C.3    84  HIS84       0.0771
     98  CG       105.6710  105.9300   72.6540 C.ar   84  HIS84       0.0820
     99  ND1      107.0320  106.0510   72.8530 N.ar   84  HIS84      -0.2267
    100  CD2      105.1540  107.1690   72.8150 C.ar   84  HIS84       0.1154
    101  CE1      107.3260  107.3090   73.1240 C.ar   84  HIS84       0.1986
    102  NE2      106.2020  108.0070   73.1050 N.ar   84  HIS84      -0.2212
    103  N        102.2390   98.4630   73.3410 N.3    86  ASP86      -0.1239
    104  CA       102.3360   97.0820   73.8000 C.3    86  ASP86       0.1674
    105  C        101.9530   96.1900   72.6170 C.2    86  ASP86       0.2266
    106  O        101.3990   96.6840   71.6320 O.2    86  ASP86      -0.2867
    107  CB       101.4950   96.7890   75.0640 C.3    86  ASP86       0.1410
    108  CG        99.9910   96.9380   74.8470 C.2    86  ASP86       0.3668
    109  OD1       99.4180   97.9300   75.3440 O.co2  86  ASP86      -0.2456
    110  OD2       99.3720   96.0460   74.2310 O.co2  86  ASP86      -0.2456
    111  N         98.0630   95.8910   71.5350 N.3    89  LYS89      -0.1245
    112  CA        97.6370   96.9660   70.6500 C.3    89  LYS89       0.1561
    113  C         98.1670   96.7830   69.2380 C.2    89  LYS89       0.2260
    114  O         97.4430   96.9790   68.2630 O.2    89  LYS89      -0.2867
    115  CB        98.0950   98.3230   71.1870 C.3    89  LYS89       0.0271
    116  CG        97.3930   98.7540   72.4610 C.3    89  LYS89       0.0035
    117  CD        97.3880  100.2830   72.6330 C.3    89  LYS89       0.0206
    118  CE        98.7990  100.8820   72.8050 C.3    89  LYS89       0.1093
    119  NZ        99.5270  100.4880   74.0730 N.3    89  LYS89      -0.1314
    120  N        100.0700   92.0790   76.6710 N.3   131  GLN131     -0.1231
    121  CA        99.9510   93.3560   77.3500 C.3   131  GLN131      0.1698
    122  C        101.2240   93.7960   78.0570 C.2   131  GLN131      0.2592
    123  O        101.4250   94.9950   78.2800 O.2   131  GLN131     -0.2718
    124  CB        98.7690   93.3330   78.3300 C.3   131  GLN131      0.0381
    125  CG        97.3690   93.1740   77.6690 C.3   131  GLN131      0.0905
    126  CD        97.0620   91.7430   77.1490 C.2   131  GLN131      0.2608
    127  OE1       97.6750   90.7620   77.5760 O.2   131  GLN131     -0.2717
    128  NE2       96.0940   91.6370   76.2390 N.am  131  GLN131     -0.0878
    129  N        102.0600   92.8670   78.5040 N.am  132  ASN132     -0.1974
    130  CA       103.2840   93.3500   79.1010 C.3   132  ASN132      0.1688
    131  C        104.5580   93.1090   78.2880 C.2   132  ASN132      0.2292
    132  O        105.6700   92.9950   78.8080 O.2   132  ASN132     -0.2864
    133  CB       103.3840   93.1070   80.6140 C.3   132  ASN132      0.1181
    134  CG       103.1180   91.7240   80.9920 C.2   132  ASN132      0.2629
    135  OD1      103.4790   90.8080   80.2760 O.2   132  ASN132     -0.2716
    136  ND2      102.4990   91.5380   82.1460 N.am  132  ASN132     -0.0877
    137  N        106.3340   95.1960   75.4820 N.3   134  LEU134     -0.1245
    138  CA       106.3330   96.5390   74.9200 C.3   134  LEU134      0.1561
    139  C        107.2870   96.7070   73.7540 C.2   134  LEU134      0.2260
    140  O        108.3880   96.1570   73.7660 O.2   134  LEU134     -0.2867
    141  CB       106.6360   97.5420   76.0300 C.3   134  LEU134      0.0270
    142  CG       105.6960   97.3900   77.2370 C.3   134  LEU134      0.0019
    143  CD1      106.2370   98.1690   78.3990 C.3   134  LEU134      0.0001
    144  CD2      104.3030   97.8470   76.8950 C.3   134  LEU134      0.0001
    145  N        107.9620   93.5430   80.2790 N.3   144  ALA144     -0.1231
    146  CA       107.5760   94.4460   81.3550 C.3   144  ALA144      0.1694
    147  C        107.1250   93.6590   82.5670 C.2   144  ALA144      0.2592
    148  O        106.6490   92.5460   82.4260 O.2   144  ALA144     -0.2718
    149  CB       106.4810   95.3530   80.8980 C.3   144  ALA144      0.0304
    150  N        107.3050   94.2290   83.7540 N.am  145  ASP145     -0.1974
    151  CA       106.9070   93.6240   85.0310 C.3   145  ASP145      0.1709
    152  C        107.5460   92.2840   85.3820 C.2   145  ASP145      0.2293
    153  O        106.9330   91.4520   86.0610 O.2   145  ASP145     -0.2864
    154  CB       105.3750   93.4900   85.1420 C.3   145  ASP145      0.1436
    155  CG       104.6460   94.8250   85.0890 C.2   145  ASP145      0.3671
    156  OD1      105.2600   95.9150   85.2010 O.co2 145  ASP145     -0.2456
    157  OD2      103.4200   94.7640   84.9170 O.co2 145  ASP145     -0.2456
@<TRIPOS>BOND
     1   114   113    2
     2   113   112    1
     3   112   115    1
     4   112   111    1
     5   115   116    1
     6   106   105    2
     7    97    98    1
     8    97    94    1
     9   116   117    1
    10   105   104    1
    11   117   118    1
    12    98   100   ar
    13    98    99   ar
    14   118   119    1
    15   100   102   ar
    16    99   101   ar
    17   102   101   ar
    18    95    96    2
    19    95    94    1
    20   103   104    1
    21    94    93    1
    22   139   140    2
    23   139   138    1
    24   104   107    1
    25    93    87   am
    26   110   108   ar
    27    92    90    1
    28   108   107    1
    29   108   109   ar
    30   138   137    1
    31   138   141    1
    32    87    86    1
    33    87    88    2
    34    89    90    1
    35    89    86    1
    36    90    91    1
    37    86    85    1
    38   141   142    1
    39   128   126   am
    40    83    84   ar
    41    83    81   ar
    42   120   121    1
    43    84    82   ar
    44   144   142    1
    45    77    76    2
    46    81    79   ar
    47   126   127    2
    48   126   125    1
    49    85    76   am
    50   142   143    1
    51   121   122    1
    52   121   124    1
    53    76    75    1
    54   125   124    1
    55    72    71   ar
    56    82    80   ar
    57   122   123    2
    58   122   129   am
    59   131   132    2
    60   131   130    1
    61    79    80   ar
    62    79    78    1
    63   129   130    1
    64    71    73   ar
    65    71    70    1
    66   130   133    1
    67    75    78    1
    68    75    74    1
    69    53    51    1
    70     7     5    1
    71     4     3    2
    72    74    67   am
    73    70    69    1
    74   135   134    2
    75   145   146    1
    76     6     8    1
    77     6     5    1
    78    47    48    1
    79     2     5    1
    80     2     3    1
    81     2     1    1
    82     3     9   am
    83   133   134    1
    84    69    66    1
    85    67    68    2
    86    67    66    1
    87    48    51    1
    88    48    49    1
    89    51    52    1
    90   149   146    1
    91   134   136   am
    92   146   147    1
    93    66    65    1
    94     9    10    1
    95    10    11    1
    96    49    50    2
    97   148   147    2
    98   147   150   am
    99    65    56   am
   100    37    34    1
   101    33    34    1
   102    11    13   am
   103    11    12    2
   104    57    56    2
   105    34    35    1
   106    31    30    1
   107    13    14    1
   108    56    55    1
   109   150   151    1
   110    29    28    2
   111    46    45    1
   112    30    32    1
   113    30    27    1
   114    16    15    2
   115    58    55    1
   116    58    59    1
   117    21    19   ar
   118    28    27    1
   119    45    44    1
   120    55    54    1
   121    15    14    1
   122    15    22   am
   123    14    17    1
   124   157   155   ar
   125    35    36    2
   126   151   154    1
   127   151   152    1
   128   155   154    1
   129   155   156   ar
   130    27    26    1
   131    61    59   ar
   132    61    63   ar
   133    59    60   ar
   134    19    20   ar
   135    19    18    1
   136    17    18    1
   137   152   153    2
   138    22    23    1
   139    23    24    1
   140    44    43    1
   141    63    64   ar
   142    60    62   ar
   143    24    25    2
   144    43    42    1
   145    64    62   ar
   146    42    39    1
   147    38    39    1
   148    39    40    1
   149    40    41    2
