@<TRIPOS>MOLECULE
tmp/2exvB00.pdb
 208 202 0 0 0
SMALL
GASTEIGER

@<TRIPOS>ATOM
      1  N          3.8890   29.0270   -9.2540 N.3     9  LYS9       -0.1231
      2  CA         2.4740   29.0940   -9.6160 C.3     9  LYS9        0.1693
      3  C          1.7200   27.7930   -9.3350 C.2     9  LYS9        0.2593
      4  O          0.5360   27.6660   -9.7070 O.2     9  LYS9       -0.2718
      5  CB         2.3140   29.4800  -11.0890 C.3     9  LYS9        0.0285
      6  CG         2.7340   30.9150  -11.4100 C.3     9  LYS9        0.0035
      7  CD         2.0240   31.9330  -10.5260 C.3     9  LYS9        0.0206
      8  CE         2.2790   33.3420  -11.0140 C.3     9  LYS9        0.1093
      9  NZ         2.1490   34.3360   -9.9120 N.3     9  LYS9       -0.1314
     10  N          2.3940   26.8080   -8.7490 N.am   10  GLY10      -0.1942
     11  CA         1.7150   25.5730   -8.3110 C.3    10  GLY10       0.2014
     12  C          1.5770   24.4870   -9.3690 C.2    10  GLY10       0.2639
     13  O          0.9820   23.4740   -9.1040 O.2    10  GLY10      -0.2714
     14  N          2.1590   24.6770  -10.5590 N.am   11  CYS11      -0.1967
     15  CA         2.0400   23.6910  -11.6420 C.3    11  CYS11       0.1712
     16  C          2.6330   22.3380  -11.2670 C.2    11  CYS11       0.2296
     17  O          2.1060   21.2870  -11.6760 O.2    11  CYS11      -0.2864
     18  CB         2.7220   24.1680  -12.9150 C.3    11  CYS11       0.0983
     19  SG         2.4910   25.9260  -13.3100 S.3    11  CYS11      -0.0798
     20  N          2.5310   20.7070   -8.6280 N.3    13  ALA13      -0.1231
     21  CA         1.6030   19.8860   -7.8310 C.3    13  ALA13       0.1694
     22  C          0.8810   18.8280   -8.6970 C.2    13  ALA13       0.2592
     23  O          0.5030   17.7260   -8.2160 O.2    13  ALA13      -0.2718
     24  CB         0.5850   20.7920   -7.1230 C.3    13  ALA13       0.0304
     25  N          0.6670   19.1580   -9.9700 N.am   14  CYS14      -0.1956
     26  CA        -0.1350   18.3190  -10.8510 C.3    14  CYS14       0.1843
     27  C          0.5290   17.8360  -12.1160 C.2    14  CYS14       0.2625
     28  O         -0.0400   16.9920  -12.8060 O.2    14  CYS14      -0.2714
     29  CB        -1.3920   19.0650  -11.3110 C.3    14  CYS14       0.0997
     30  SG        -2.5150   19.4430   -9.9910 S.3    14  CYS14      -0.0797
     31  N          1.6590   18.4310  -12.4680 N.am   15  HIS15      -0.1973
     32  CA         2.3410   18.1470  -13.7220 C.3    15  HIS15       0.1656
     33  C          3.8170   17.9020  -13.4690 C.2    15  HIS15       0.2291
     34  O          4.4730   18.6560  -12.7390 O.2    15  HIS15      -0.2864
     35  CB         2.3070   19.3570  -14.6740 C.3    15  HIS15       0.0771
     36  CG         0.9730   19.6350  -15.2990 C.ar   15  HIS15       0.0820
     37  ND1        0.5050   18.9540  -16.4080 N.ar   15  HIS15      -0.2267
     38  CD2        0.0510   20.5900  -15.0250 C.ar   15  HIS15       0.1154
     39  CE1       -0.6730   19.4450  -16.7540 C.ar   15  HIS15       0.1986
     40  NE2       -0.9610   20.4530  -15.9460 N.ar   15  HIS15      -0.2212
     41  N         -1.5220   14.2670  -12.1450 N.3    22  VAL22      -0.1231
     42  CA        -2.9300   14.6520  -12.2700 C.3    22  VAL22       0.1692
     43  C         -3.1880   15.0690  -13.7220 C.2    22  VAL22       0.2593
     44  O         -4.1380   14.5960  -14.3850 O.2    22  VAL22      -0.2718
     45  CB        -3.2710   15.8200  -11.2990 C.3    22  VAL22       0.0266
     46  CG1       -4.7250   16.2580  -11.4430 C.3    22  VAL22       0.0020
     47  CG2       -2.9910   15.4170   -9.8510 C.3    22  VAL22       0.0020
     48  N         -2.3460   15.9810  -14.1910 N.am   23  GLY23      -0.1943
     49  CA        -2.4190   16.4930  -15.5560 C.3    23  GLY23       0.1998
     50  C         -1.4150   15.7920  -16.4450 C.2    23  GLY23       0.2480
     51  O         -0.5170   15.1010  -15.9440 O.2    23  GLY23      -0.2729
     52  N         -1.5580   15.9480  -17.7770 N.am   24  PRO24      -0.2726
     53  CA        -0.6740   15.2360  -18.6920 C.3    24  PRO24       0.1402
     54  C          0.7890   15.6400  -18.5010 C.2    24  PRO24       0.2269
     55  O          1.0690   16.7730  -18.1230 O.2    24  PRO24      -0.2865
     56  CB        -1.1850   15.6550  -20.0750 C.3    24  PRO24       0.0296
     57  CG        -1.9130   16.9440  -19.8400 C.3    24  PRO24       0.0237
     58  CD        -2.5420   16.7740  -18.4910 C.3    24  PRO24       0.0939
     59  N          4.3060   17.0450  -19.4720 N.3    26  TYR26      -0.1241
     60  CA         4.5920   18.1220  -20.4260 C.3    26  TYR26       0.1605
     61  C          5.1650   17.5880  -21.7380 C.2    26  TYR26       0.2264
     62  O          4.9000   18.1560  -22.8080 O.2    26  TYR26      -0.2867
     63  CB         5.5240   19.1910  -19.8490 C.3    26  TYR26       0.0534
     64  CG         4.9810   19.9970  -18.6750 C.ar   26  TYR26      -0.0201
     65  CD1        5.8050   20.2980  -17.6060 C.ar   26  TYR26      -0.0009
     66  CD2        3.6650   20.4700  -18.6460 C.ar   26  TYR26      -0.0009
     67  CE1        5.3530   21.0430  -16.5210 C.ar   26  TYR26       0.0417
     68  CE2        3.1960   21.2300  -17.5650 C.ar   26  TYR26       0.0417
     69  CZ         4.0610   21.5090  -16.5040 C.ar   26  TYR26       0.1957
     70  OH         3.6290   22.2430  -15.4240 O.3    26  TYR26      -0.2866
     71  N          2.1560   16.6740  -23.8310 N.3    29  VAL29      -0.1245
     72  CA         1.5420   17.8940  -24.3370 C.3    29  VAL29       0.1561
     73  C          2.3300   18.4560  -25.5270 C.2    29  VAL29       0.2260
     74  O          1.7420   18.8100  -26.5690 O.2    29  VAL29      -0.2867
     75  CB         1.4640   18.9780  -23.2370 C.3    29  VAL29       0.0252
     76  CG1        0.7680   20.2430  -23.7770 C.3    29  VAL29       0.0019
     77  CG2        0.7250   18.4430  -21.9980 C.3    29  VAL29       0.0019
     78  N         -2.3570   26.9900  -25.7460 N.3    43  LEU43      -0.1245
     79  CA        -1.9100   26.5260  -24.4400 C.3    43  LEU43       0.1561
     80  C         -1.9220   27.6190  -23.3940 C.2    43  LEU43       0.2260
     81  O         -2.3060   27.3690  -22.2620 O.2    43  LEU43      -0.2867
     82  CB        -0.5340   25.8670  -24.5250 C.3    43  LEU43       0.0270
     83  CG        -0.5280   24.5080  -25.2400 C.3    43  LEU43       0.0019
     84  CD1        0.8000   23.7720  -24.9470 C.3    43  LEU43       0.0001
     85  CD2       -1.7040   23.6240  -24.8140 C.3    43  LEU43       0.0001
     86  N         -5.3790   28.1100  -22.1400 N.3    46  ARG46      -0.1231
     87  CA        -5.7570   26.9500  -21.3130 C.3    46  ARG46       0.1694
     88  C         -5.1220   26.9920  -19.9110 C.2    46  ARG46       0.2591
     89  O         -5.7700   26.6650  -18.9180 O.2    46  ARG46      -0.2718
     90  CB        -5.3920   25.6570  -22.0590 C.3    46  ARG46       0.0321
     91  CG        -6.2250   25.4250  -23.3060 C.3    46  ARG46       0.0489
     92  CD        -7.5830   24.8900  -22.9840 C.3    46  ARG46       0.2205
     93  NE        -8.4240   24.7810  -24.1840 N.pl3  46  ARG46      -0.0865
     94  CZ        -9.6440   24.2370  -24.2160 C.cat  46  ARG46       0.5346
     95  NH1      -10.1940   23.7110  -23.1180 N.pl3  46  ARG46       0.1354
     96  NH2      -10.3110   24.1970  -25.3660 N.pl3  46  ARG46       0.1354
     97  N         -3.8490   27.3760  -19.8380 N.am   47  ILE47      -0.1980
     98  CA        -3.1640   27.5430  -18.5560 C.3    47  ILE47       0.1595
     99  C         -3.8720   28.6000  -17.6920 C.2    47  ILE47       0.2287
    100  O         -4.0800   28.3890  -16.4970 O.2    47  ILE47      -0.2864
    101  CB        -1.6500   27.8940  -18.7460 C.3    47  ILE47       0.0276
    102  CG1       -0.8890   26.6950  -19.3310 C.3    47  ILE47       0.0022
    103  CG2       -1.0250   28.2810  -17.4120 C.3    47  ILE47       0.0022
    104  CD1        0.4060   27.0720  -20.1050 C.3    47  ILE47       0.0001
    105  N         -9.1440   24.0280  -18.0790 N.3    51  SER51      -0.1202
    106  CA        -9.4120   23.1100  -19.1670 C.3    51  SER51       0.2020
    107  C        -10.0650   21.8770  -18.5810 C.2    51  SER51       0.2619
    108  O         -9.6890   21.4340  -17.5000 O.2    51  SER51      -0.2717
    109  CB        -8.0640   22.7440  -19.7910 C.3    51  SER51       0.2103
    110  OG        -8.2210   21.9240  -20.9100 O.3    51  SER51      -0.2182
    111  N        -11.0570   21.3310  -19.2740 N.am   52  GLN52      -0.1965
    112  CA       -11.6040   20.0450  -18.8820 C.3    52  GLN52       0.1733
    113  C        -11.9950   19.3560  -20.1680 C.2    52  GLN52       0.2617
    114  O        -12.5090   20.0080  -21.0850 O.2    52  GLN52      -0.2715
    115  CB       -12.7880   20.2160  -17.9180 C.3    52  GLN52       0.0408
    116  CG       -13.3100   18.8740  -17.3560 C.3    52  GLN52       0.0908
    117  CD       -14.4820   19.0200  -16.3030 C.2    52  GLN52       0.2608
    118  OE1      -14.9080   20.1400  -16.0150 O.2    52  GLN52      -0.2717
    119  NE2      -14.9800   17.8700  -15.7490 N.am   52  GLN52      -0.0878
    120  N        -11.7380   18.0550  -20.2640 N.am   53  GLY53      -0.1940
    121  CA       -12.2120   17.2930  -21.4220 C.3    53  GLY53       0.2014
    122  C        -11.2960   17.2300  -22.6280 C.2    53  GLY53       0.2639
    123  O        -11.6030   16.5460  -23.5870 O.2    53  GLY53      -0.2714
    124  N        -10.1590   17.9280  -22.5800 N.am   54  VAL54      -0.1963
    125  CA        -9.1640   17.7930  -23.6710 C.3    54  VAL54       0.1727
    126  C         -8.4310   16.4480  -23.5460 C.2    54  VAL54       0.2616
    127  O         -8.3560   15.6770  -24.5030 O.2    54  VAL54      -0.2715
    128  CB        -8.1760   18.9790  -23.7220 C.3    54  VAL54       0.0290
    129  CG1       -7.2010   18.8380  -24.9060 C.3    54  VAL54       0.0023
    130  CG2       -8.9500   20.2890  -23.7840 C.3    54  VAL54       0.0023
    131  N         -7.9610   16.1570  -22.3400 N.am   55  TRP55      -0.1960
    132  CA        -7.1970   14.9390  -22.0460 C.3    55  TRP55       0.1771
    133  C         -7.9630   13.8830  -21.2680 C.2    55  TRP55       0.2620
    134  O         -7.6970   12.6880  -21.4140 O.2    55  TRP55      -0.2715
    135  CB        -5.9530   15.3140  -21.2430 C.3    55  TRP55       0.0590
    136  CG        -5.0150   16.1440  -22.0060 C.ar   55  TRP55       0.0006
    137  CD1       -5.0260   17.5260  -22.1370 C.ar   55  TRP55       0.0946
    138  CD2       -3.8910   15.6830  -22.7520 C.ar   55  TRP55       0.0152
    139  NE1       -3.9820   17.9280  -22.9250 N.ar   55  TRP55      -0.2442
    140  CE2       -3.2650   16.8270  -23.3160 C.ar   55  TRP55       0.0810
    141  CE3       -3.3320   14.4200  -22.9810 C.ar   55  TRP55       0.0012
    142  CZ2       -2.1130   16.7340  -24.1110 C.ar   55  TRP55       0.0191
    143  CZ3       -2.1960   14.3270  -23.7710 C.ar   55  TRP55       0.0001
    144  CH2       -1.5910   15.4780  -24.3160 C.ar   55  TRP55       0.0015
    145  N         -8.9120   14.3120  -20.4430 N.am   56  GLY56      -0.1954
    146  CA        -9.6750   13.3780  -19.6140 C.3    56  GLY56       0.1869
    147  C        -10.7200   14.1210  -18.8070 C.2    56  GLY56       0.2309
    148  O        -10.9070   15.3270  -19.0140 O.2    56  GLY56      -0.2863
    149  N        -10.7620   14.9060  -15.6140 N.3    58  ILE58      -0.1231
    150  CA       -10.2520   15.7470  -14.5260 C.3    58  ILE58       0.1678
    151  C        -10.0260   17.1830  -15.0090 C.2    58  ILE58       0.2434
    152  O         -9.3570   17.4010  -16.0510 O.2    58  ILE58      -0.2733
    153  CB        -8.9210   15.2140  -13.9060 C.3    58  ILE58       0.0265
    154  CG1       -9.0610   13.7750  -13.4040 C.3    58  ILE58       0.0019
    155  CG2       -8.4570   16.1340  -12.7850 C.3    58  ILE58       0.0020
    156  CD1       -7.7210   13.0940  -13.1140 C.3    58  ILE58       0.0001
    157  N        -10.6090   18.1610  -14.2820 N.am   59  PRO59      -0.2718
    158  CA       -10.4120   19.5420  -14.7130 C.3    59  PRO59       0.1535
    159  C         -9.0650   20.0720  -14.2840 C.2    59  PRO59       0.2598
    160  O         -8.5360   19.6750  -13.2170 O.2    59  PRO59      -0.2715
    161  CB       -11.5280   20.3230  -14.0120 C.3    59  PRO59       0.0310
    162  CG       -12.0130   19.4330  -12.8620 C.3    59  PRO59       0.0237
    163  CD       -11.5200   18.0300  -13.1180 C.3    59  PRO59       0.0939
    164  N         -8.4790   20.9160  -15.1390 N.am   60  MET60      -0.1964
    165  CA        -7.4520   21.8300  -14.6530 C.3    60  MET60       0.1721
    166  C         -8.1890   23.1050  -14.3150 C.2    60  MET60       0.2458
    167  O         -8.8010   23.7360  -15.1890 O.2    60  MET60      -0.2730
    168  CB        -6.4090   22.1400  -15.7180 C.3    60  MET60       0.0427
    169  CG        -5.4850   23.3300  -15.2990 C.3    60  MET60       0.0599
    170  SD        -3.9300   23.5710  -16.2040 S.3    60  MET60      -0.1393
    171  CE        -4.6060   23.7060  -17.8870 C.3    60  MET60       0.0692
    172  N         -8.1890   23.4750  -13.0490 N.am   61  PRO61      -0.2727
    173  CA        -8.8020   24.7340  -12.6940 C.3    61  PRO61       0.1402
    174  C         -8.0510   25.9130  -13.3270 C.2    61  PRO61       0.2269
    175  O         -6.8780   25.7930  -13.6630 O.2    61  PRO61      -0.2865
    176  CB        -8.6780   24.7530  -11.1650 C.3    61  PRO61       0.0296
    177  CG        -8.5300   23.2640  -10.7880 C.3    61  PRO61       0.0237
    178  CD        -7.6950   22.7310  -11.8740 C.3    61  PRO61       0.0939
    179  N         -5.7620   29.0260  -13.6110 N.3    63  ASN63      -0.1240
    180  CA        -4.5450   29.3720  -12.8840 C.3    63  ASN63       0.1653
    181  C         -4.3750   30.8680  -12.7390 C.2    63  ASN63       0.2266
    182  O         -4.5850   31.6090  -13.6840 O.2    63  ASN63      -0.2867
    183  CB        -3.3110   28.7560  -13.5550 C.3    63  ASN63       0.1155
    184  CG        -3.2660   27.2610  -13.4050 C.2    63  ASN63       0.2627
    185  OD1       -3.1510   26.7230  -12.2770 O.2    63  ASN63      -0.2716
    186  ND2       -3.3840   26.5680  -14.5220 N.am   63  ASN63      -0.0877
    187  N         -2.3420   33.2360  -13.1540 N.3    65  VAL65      -0.1245
    188  CA        -1.1880   33.7210  -13.8840 C.3    65  VAL65       0.1561
    189  C         -1.6290   34.7890  -14.8750 C.2    65  VAL65       0.2260
    190  O         -2.7750   34.7820  -15.3290 O.2    65  VAL65      -0.2867
    191  CB        -0.5450   32.5850  -14.6590 C.3    65  VAL65       0.0252
    192  CG1        0.0050   31.5710  -13.6690 C.3    65  VAL65       0.0019
    193  CG2       -1.5820   31.9260  -15.5760 C.3    65  VAL65       0.0019
    194  N          5.0720   29.9900  -19.7910 N.3    73  LEU73      -0.1245
    195  CA         4.8480   28.6210  -19.4150 C.3    73  LEU73       0.1561
    196  C          4.5080   27.8140  -20.6600 C.2    73  LEU73       0.2260
    197  O          5.0260   26.7000  -20.8380 O.2    73  LEU73      -0.2867
    198  CB         3.7460   28.5320  -18.3350 C.3    73  LEU73       0.0270
    199  CG         4.2660   28.9560  -16.9380 C.3    73  LEU73       0.0019
    200  CD1        3.1330   29.2020  -15.9470 C.3    73  LEU73       0.0001
    201  CD2        5.3020   27.9640  -16.3460 C.3    73  LEU73       0.0001
    202  N          6.5200   24.5330  -21.9580 N.3    77  VAL77      -0.1245
    203  CA         5.8610   23.2360  -22.1070 C.3    77  VAL77       0.1561
    204  C          6.0950   22.6790  -23.5250 C.2    77  VAL77       0.2260
    205  O          6.5130   21.5140  -23.6970 O.2    77  VAL77      -0.2867
    206  CB         4.3600   23.3260  -21.7730 C.3    77  VAL77       0.0252
    207  CG1        3.6350   21.9990  -22.1260 C.3    77  VAL77       0.0019
    208  CG2        4.1990   23.6460  -20.2490 C.3    77  VAL77       0.0019
@<TRIPOS>BOND
     1    74    73    2
     2    78    79    1
     3    73    72    1
     4    96    94    1
     5    83    84    1
     6    83    85    1
     7    83    82    1
     8   129   128    1
     9    82    79    1
    10   127   126    2
    11    79    80    1
    12    72    71    1
    13    72    75    1
    14   144   142   ar
    15   144   143   ar
    16    94    93    2
    17    94    95    1
    18    93    92    1
    19   142   140   ar
    20   130   128    1
    21    76    75    1
    22   143   141   ar
    23   128   125    1
    24   205   204    2
    25   125   126    1
    26   125   124    1
    27   123   122    2
    28   126   131   am
    29   204   203    1
    30    80    81    2
    31   140   139   ar
    32   140   138   ar
    33    91    92    1
    34    91    90    1
    35    75    77    1
    36   141   138   ar
    37   139   137   ar
    38    62    61    2
    39   138   136   ar
    40   122   124   am
    41   122   121    1
    42   131   132    1
    43    86    87    1
    44   137   136   ar
    45   207   206    1
    46   203   202    1
    47   203   206    1
    48    90    87    1
    49   132   133    1
    50   132   135    1
    51   136   135    1
    52   206   208    1
    53    61    60    1
    54   121   120    1
    55   134   133    2
    56    87    88    1
    57   133   145   am
    58   114   113    2
    59   110   109    1
    60   197   196    2
    61   196   195    1
    62   145   146    1
    63    60    63    1
    64    60    59    1
    65   120   113   am
    66   113   112    1
    67   104   102    1
    68    56    57    1
    69    56    53    1
    70    88    97   am
    71    88    89    2
    72    63    64    1
    73    57    58    1
    74    97    98    1
    75   109   106    1
    76   194   195    1
    77   146   147    1
    78   195   198    1
    79   102   101    1
    80   111   112    1
    81   111   107   am
    82   106   107    1
    83   106   105    1
    84   148   147    2
    85   112   115    1
    86   101    98    1
    87   101   103    1
    88    53    54    1
    89    53    52    1
    90    64    66   ar
    91    64    65   ar
    92    66    68   ar
    93   107   108    2
    94    98    99    1
    95    54    55    2
    96    58    52    1
    97   198   199    1
    98   115   116    1
    99   171   170    1
   100    52    50   am
   101    99   100    2
   102    65    67   ar
   103    68    69   ar
   104   116   117    1
   105   199   201    1
   106   199   200    1
   107    39    37   ar
   108    39    40   ar
   109    67    69   ar
   110    69    70    1
   111    50    51    2
   112    50    49    1
   113    37    36   ar
   114   117   118    2
   115   117   119   am
   116   170   169    1
   117   152   151    2
   118    40    38   ar
   119   168   169    1
   120   168   165    1
   121   149   150    1
   122   193   191    1
   123    49    48    1
   124   190   189    2
   125    36    38   ar
   126    36    35    1
   127   167   166    2
   128   164   165    1
   129   164   159   am
   130   151   150    1
   131   151   157   am
   132   189   188    1
   133   158   159    1
   134   158   157    1
   135   158   161    1
   136    35    32    1
   137   191   188    1
   138   191   192    1
   139   165   166    1
   140   150   153    1
   141   186   184   am
   142    44    43    2
   143   166   172   am
   144   159   160    2
   145   157   163    1
   146    48    43   am
   147   161   162    1
   148   153   154    1
   149   153   155    1
   150   188   187    1
   151    43    42    1
   152    32    33    1
   153    32    31    1
   154   182   181    2
   155   175   174    2
   156   179   180    1
   157   183   184    1
   158   183   180    1
   159    33    34    2
   160   184   185    2
   161   154   156    1
   162   174   173    1
   163    19    18    1
   164   163   162    1
   165   172   173    1
   166   172   178    1
   167    18    15    1
   168   180   181    1
   169    28    27    2
   170   173   176    1
   171    31    27   am
   172    42    41    1
   173    42    45    1
   174    27    26    1
   175   178   177    1
   176    17    16    2
   177    15    16    1
   178    15    14    1
   179    46    45    1
   180     6     5    1
   181     6     7    1
   182    29    26    1
   183    29    30    1
   184    45    47    1
   185   176   177    1
   186     5     2    1
   187     8     7    1
   188     8     9    1
   189    26    25    1
   190    14    12   am
   191    25    22   am
   192     4     3    2
   193     2     3    1
   194     2     1    1
   195    12    13    2
   196    12    11    1
   197     3    10   am
   198    10    11    1
   199    22    23    2
   200    22    21    1
   201    20    21    1
   202    21    24    1
