@<TRIPOS>MOLECULE
tmp/2exvA00.pdb
 208 202 0 0 0
SMALL
GASTEIGER

@<TRIPOS>ATOM
      1  N        -22.5350   19.4430   -8.6870 N.3    10  LYS10      -0.1231
      2  CA       -21.5670   20.4440   -8.2670 C.3    10  LYS10       0.1693
      3  C        -20.1510   20.0510   -8.6830 C.2    10  LYS10       0.2593
      4  O        -19.1990   20.7150   -8.3080 O.2    10  LYS10      -0.2718
      5  CB       -21.6760   20.6570   -6.7690 C.3    10  LYS10       0.0285
      6  CG       -23.0100   21.2360   -6.3300 C.3    10  LYS10       0.0035
      7  CD       -23.1660   22.6800   -6.8600 C.3    10  LYS10       0.0206
      8  CE       -24.4610   23.3240   -6.4020 C.3    10  LYS10       0.1093
      9  NZ       -25.5450   23.2780   -7.4210 N.3    10  LYS10      -0.1314
     10  N        -20.0150   18.9930   -9.4790 N.am   11  GLY11      -0.1942
     11  CA       -18.7250   18.6680  -10.0890 C.3    11  GLY11       0.2014
     12  C        -17.7120   17.9260   -9.2390 C.2    11  GLY11       0.2639
     13  O        -16.5950   17.6850   -9.6860 O.2    11  GLY11      -0.2714
     14  N        -18.0970   17.5460   -8.0240 N.am   12  CYS12      -0.1967
     15  CA       -17.2390   16.7650   -7.0960 C.3    12  CYS12       0.1712
     16  C        -16.7880   15.4530   -7.7200 C.2    12  CYS12       0.2296
     17  O        -15.6490   15.0280   -7.4890 O.2    12  CYS12      -0.2864
     18  CB       -18.0010   16.4480   -5.8000 C.3    12  CYS12       0.0983
     19  SG       -19.0130   17.8020   -5.1140 S.3    12  CYS12      -0.0798
     20  N        -15.7730   14.7870  -10.5970 N.3    14  ALA14      -0.1231
     21  CA       -14.6140   14.9180  -11.4960 C.3    14  ALA14       0.1694
     22  C        -13.3250   14.5940  -10.7610 C.2    14  ALA14       0.2592
     23  O        -12.3610   14.1400  -11.3850 O.2    14  ALA14      -0.2718
     24  CB       -14.5500   16.3040  -12.0930 C.3    14  ALA14       0.0304
     25  N        -13.3260   14.7750   -9.4320 N.am   15  CYS15      -0.1956
     26  CA       -12.1070   14.7050   -8.6260 C.3    15  CYS15       0.1843
     27  C        -12.1840   13.7410   -7.4180 C.2    15  CYS15       0.2625
     28  O        -11.1540   13.4690   -6.8050 O.2    15  CYS15      -0.2714
     29  CB       -11.7740   16.0990   -8.0700 C.3    15  CYS15       0.0997
     30  SG       -11.3550   17.2940   -9.3490 S.3    15  CYS15      -0.0797
     31  N        -13.3700   13.2130   -7.1080 N.am   16  HIS16      -0.1973
     32  CA       -13.5240   12.3770   -5.9190 C.3    16  HIS16       0.1656
     33  C        -14.4480   11.2250   -6.2140 C.2    16  HIS16       0.2291
     34  O        -15.4420   11.3940   -6.9270 O.2    16  HIS16      -0.2864
     35  CB       -14.1990   13.1420   -4.7760 C.3    16  HIS16       0.0771
     36  CG       -13.3770   14.2210   -4.1340 C.ar   16  HIS16       0.0820
     37  ND1      -12.4790   13.9730   -3.1090 N.ar   16  HIS16      -0.2267
     38  CD2      -13.4250   15.5690   -4.2720 C.ar   16  HIS16       0.1154
     39  CE1      -11.9840   15.1170   -2.6770 C.ar   16  HIS16       0.1986
     40  NE2      -12.5440   16.1010   -3.3570 N.ar   16  HIS16      -0.2212
     41  N         -8.1540   12.4710   -7.8220 N.3    23  VAL23      -0.1231
     42  CA        -7.3030   13.6460   -7.5780 C.3    23  VAL23       0.1692
     43  C         -7.3570   13.9930   -6.1010 C.2    23  VAL23       0.2593
     44  O         -6.3110   14.2610   -5.4440 O.2    23  VAL23      -0.2718
     45  CB        -7.8100   14.9110   -8.3160 C.3    23  VAL23       0.0266
     46  CG1       -6.6950   15.9480   -8.3120 C.3    23  VAL23       0.0020
     47  CG2       -8.2480   14.5850   -9.7240 C.3    23  VAL23       0.0020
     48  N         -8.5940   14.0440   -5.6160 N.am   24  GLY24      -0.1943
     49  CA        -8.9060   14.3010   -4.2240 C.3    24  GLY24       0.1998
     50  C         -8.9940   12.9800   -3.4840 C.2    24  GLY24       0.2480
     51  O         -9.1340   11.9370   -4.1290 O.2    24  GLY24      -0.2729
     52  N         -8.9240   13.0140   -2.1320 N.am   25  PRO25      -0.2726
     53  CA        -9.0040   11.7480   -1.3950 C.3    25  PRO25       0.1402
     54  C        -10.3740   11.0700   -1.5690 C.2    25  PRO25       0.2269
     55  O        -11.3670   11.7600   -1.7700 O.2    25  PRO25      -0.2865
     56  CB        -8.8110   12.1580    0.0660 C.3    25  PRO25       0.0296
     57  CG        -9.1330   13.6440    0.1400 C.3    25  PRO25       0.0237
     58  CD        -8.8330   14.2020   -1.2520 C.3    25  PRO25       0.0939
     59  N        -13.8030    9.5280   -0.3460 N.3    27  TYR27      -0.1241
     60  CA       -14.6130    9.9910    0.7610 C.3    27  TYR27       0.1605
     61  C        -14.5210    9.0160    1.9280 C.2    27  TYR27       0.2264
     62  O        -14.5240    9.4330    3.0840 O.2    27  TYR27      -0.2867
     63  CB       -16.0740   10.1850    0.3450 C.3    27  TYR27       0.0534
     64  CG       -16.3210   11.2880   -0.6910 C.ar   27  TYR27      -0.0201
     65  CD1      -17.2700   11.1070   -1.6860 C.ar   27  TYR27      -0.0009
     66  CD2      -15.6170   12.4890   -0.6690 C.ar   27  TYR27      -0.0009
     67  CE1      -17.5270   12.1130   -2.6330 C.ar   27  TYR27       0.0417
     68  CE2      -15.8630   13.5200   -1.6280 C.ar   27  TYR27       0.0417
     69  CZ       -16.8400   13.3050   -2.5970 C.ar   27  TYR27       0.1957
     70  OH       -17.0790   14.2470   -3.5570 O.3    27  TYR27      -0.2866
     71  N        -11.4580   10.0500    3.8280 N.3    30  VAL30      -0.1245
     72  CA       -11.7500   11.2620    4.5910 C.3    30  VAL30       0.1561
     73  C        -12.5080   10.9530    5.8920 C.2    30  VAL30       0.2260
     74  O        -12.1050   11.4060    6.9790 O.2    30  VAL30      -0.2867
     75  CB       -12.4990   12.2990    3.7530 C.3    30  VAL30       0.0252
     76  CG1      -12.8350   13.5660    4.5760 C.3    30  VAL30       0.0019
     77  CG2      -11.6600   12.6870    2.5230 C.3    30  VAL30       0.0019
     78  N        -14.9880   20.5760    7.4810 N.3    44  LEU44      -0.1245
     79  CA       -15.0710   20.0330    6.1450 C.3    44  LEU44       0.1561
     80  C        -16.0170   20.8620    5.3160 C.2    44  LEU44       0.2260
     81  O        -15.7650   21.0860    4.1620 O.2    44  LEU44      -0.2867
     82  CB       -15.5390   18.5830    6.1290 C.3    44  LEU44       0.0270
     83  CG       -14.6320   17.4090    6.4900 C.3    44  LEU44       0.0019
     84  CD1      -15.2520   16.1290    5.8880 C.3    44  LEU44       0.0001
     85  CD2      -13.2140   17.6220    5.9690 C.3    44  LEU44       0.0001
     86  N        -14.1540   23.9120    4.0810 N.3    47  ARG47      -0.1231
     87  CA       -13.1430   23.5370    3.0880 C.3    47  ARG47       0.1694
     88  C        -13.7530   23.1610    1.7380 C.2    47  ARG47       0.2591
     89  O        -13.1880   23.4700    0.6910 O.2    47  ARG47      -0.2718
     90  CB       -12.2580   22.4180    3.6210 C.3    47  ARG47       0.0321
     91  CG       -11.2420   22.9230    4.6400 C.3    47  ARG47       0.0489
     92  CD       -10.4780   21.7840    5.2910 C.3    47  ARG47       0.2205
     93  NE        -9.3770   22.2940    6.1100 N.pl3  47  ARG47      -0.0865
     94  CZ        -8.7220   21.5890    7.0300 C.cat  47  ARG47       0.5346
     95  NH1       -9.0420   20.3180    7.2610 N.pl3  47  ARG47       0.1354
     96  NH2       -7.7220   22.1550    7.7110 N.pl3  47  ARG47       0.1354
     97  N        -14.8900   22.4720    1.7700 N.am   48  ILE48      -0.1980
     98  CA       -15.5970   22.1440    0.5220 C.3    48  ILE48       0.1595
     99  C        -16.0080   23.4310   -0.2010 C.2    48  ILE48       0.2287
    100  O        -15.8820   23.5380   -1.4250 O.2    48  ILE48      -0.2864
    101  CB       -16.8390   21.2500    0.7970 C.3    48  ILE48       0.0276
    102  CG1      -16.3890   19.8230    1.1730 C.3    48  ILE48       0.0022
    103  CG2      -17.8010   21.2240   -0.4520 C.3    48  ILE48       0.0022
    104  CD1      -17.5000   18.9980    1.8990 C.3    48  ILE48       0.0001
    105  N         -9.1070   24.0640   -0.2450 N.3    52  SER52      -0.1202
    106  CA        -7.9890   23.8990    0.7080 C.3    52  SER52       0.2020
    107  C         -6.7590   23.4440   -0.0670 C.2    52  SER52       0.2619
    108  O         -6.8570   23.0560   -1.2410 O.2    52  SER52      -0.2717
    109  CB        -8.3530   22.8660    1.8010 C.3    52  SER52       0.2103
    110  OG        -8.2900   21.5590    1.2790 O.3    52  SER52      -0.2182
    111  N         -5.6120   23.4410    0.6010 N.am   53  GLN53      -0.1965
    112  CA        -4.4170   22.8620    0.0340 C.3    53  GLN53       0.1733
    113  C         -3.5370   22.4850    1.2160 C.2    53  GLN53       0.2617
    114  O         -3.4290   23.2610    2.1880 O.2    53  GLN53      -0.2715
    115  CB        -3.7160   23.8790   -0.8650 C.3    53  GLN53       0.0408
    116  CG        -2.3870   23.4130   -1.4680 C.3    53  GLN53       0.0908
    117  CD        -1.7470   24.4600   -2.3930 C.2    53  GLN53       0.2608
    118  OE1       -2.1200   25.6250   -2.3810 O.2    53  GLN53      -0.2717
    119  NE2       -0.7920   24.0320   -3.1980 N.am   53  GLN53      -0.0878
    120  N         -2.9240   21.3120    1.1550 N.am   54  GLY54      -0.1940
    121  CA        -1.9790   20.9040    2.1970 C.3    54  GLY54       0.2014
    122  C         -2.6590   20.1490    3.3400 C.2    54  GLY54       0.2639
    123  O         -1.9920   19.8330    4.3260 O.2    54  GLY54      -0.2714
    124  N         -3.9600   19.8590    3.2210 N.am   55  VAL55      -0.1963
    125  CA        -4.6530   19.0400    4.2380 C.3    55  VAL55       0.1727
    126  C         -4.3020   17.5740    3.9720 C.2    55  VAL55       0.2616
    127  O         -3.9150   16.8250    4.8730 O.2    55  VAL55      -0.2715
    128  CB        -6.2040   19.2290    4.2250 C.3    55  VAL55       0.0290
    129  CG1       -6.8200   18.3290    5.2700 C.3    55  VAL55       0.0023
    130  CG2       -6.5290   20.6990    4.4970 C.3    55  VAL55       0.0023
    131  N         -4.3810   17.2190    2.6980 N.am   56  TRP56      -0.1960
    132  CA        -4.0900   15.8610    2.2520 C.3    56  TRP56       0.1771
    133  C         -2.8730   15.8010    1.3640 C.2    56  TRP56       0.2620
    134  O         -2.2470   14.7520    1.2250 O.2    56  TRP56      -0.2715
    135  CB        -5.3070   15.3300    1.4930 C.3    56  TRP56       0.0590
    136  CG        -6.4030   15.0310    2.4150 C.ar   56  TRP56       0.0006
    137  CD1       -7.3190   15.9050    2.9130 C.ar   56  TRP56       0.0946
    138  CD2       -6.7160   13.7590    2.9650 C.ar   56  TRP56       0.0152
    139  NE1       -8.1910   15.2560    3.7430 N.ar   56  TRP56      -0.2442
    140  CE2       -7.8380   13.9340    3.8020 C.ar   56  TRP56       0.0810
    141  CE3       -6.1530   12.4800    2.8370 C.ar   56  TRP56       0.0012
    142  CZ2       -8.4260   12.8730    4.5050 C.ar   56  TRP56       0.0191
    143  CZ3       -6.7240   11.4270    3.5450 C.ar   56  TRP56       0.0001
    144  CH2       -7.8640   11.6320    4.3570 C.ar   56  TRP56       0.0015
    145  N         -2.4950   16.9300    0.7890 N.am   57  GLY57      -0.1954
    146  CA        -1.2820   16.9670   -0.0430 C.3    57  GLY57       0.1869
    147  C         -1.1670   18.2950   -0.7340 C.2    57  GLY57       0.2309
    148  O         -1.9350   19.2170   -0.4170 O.2    57  GLY57      -0.2863
    149  N         -1.7390   19.1990   -3.8730 N.3    59  ILE59      -0.1231
    150  CA        -2.7180   19.5490   -4.9000 C.3    59  ILE59       0.1678
    151  C         -3.8460   20.2980   -4.2050 C.2    59  ILE59       0.2434
    152  O         -4.3800   19.8010   -3.2120 O.2    59  ILE59      -0.2733
    153  CB        -3.3070   18.2960   -5.6100 C.3    59  ILE59       0.0265
    154  CG1       -2.1760   17.4870   -6.2690 C.3    59  ILE59       0.0019
    155  CG2       -4.3640   18.7130   -6.6630 C.3    59  ILE59       0.0020
    156  CD1       -2.5630   16.0470   -6.5030 C.3    59  ILE59       0.0001
    157  N         -4.1860   21.5050   -4.6870 N.am   60  PRO60      -0.2718
    158  CA        -5.2830   22.2130   -4.0410 C.3    60  PRO60       0.1535
    159  C         -6.6430   21.7790   -4.5370 C.2    60  PRO60       0.2598
    160  O         -6.8120   21.4450   -5.7300 O.2    60  PRO60      -0.2715
    161  CB        -5.0420   23.6720   -4.4360 C.3    60  PRO60       0.0310
    162  CG        -4.1430   23.6400   -5.5660 C.3    60  PRO60       0.0237
    163  CD        -3.6550   22.2610   -5.8330 C.3    60  PRO60       0.0939
    164  N         -7.6120   21.7930   -3.6280 N.am   61  MET61      -0.1964
    165  CA        -9.0000   21.8380   -4.0240 C.3    61  MET61       0.1721
    166  C         -9.4050   23.2950   -4.2480 C.2    61  MET61       0.2458
    167  O         -9.2960   24.1320   -3.3340 O.2    61  MET61      -0.2730
    168  CB        -9.8930   21.2380   -2.9490 C.3    61  MET61       0.0427
    169  CG       -11.3760   21.2940   -3.3750 C.3    61  MET61       0.0599
    170  SD       -12.5540   20.2990   -2.4660 S.3    61  MET61      -0.1393
    171  CE       -12.1570   20.7930   -0.7960 C.3    61  MET61       0.0692
    172  N         -9.8660   23.6240   -5.4560 N.am   62  PRO62      -0.2727
    173  CA       -10.3140   24.9870   -5.6350 C.3    62  PRO62       0.1402
    174  C        -11.6270   25.2010   -4.9070 C.2    62  PRO62       0.2269
    175  O        -12.3050   24.2250   -4.5910 O.2    62  PRO62      -0.2865
    176  CB       -10.5840   25.0620   -7.1520 C.3    62  PRO62       0.0296
    177  CG        -9.8250   23.9210   -7.7180 C.3    62  PRO62       0.0237
    178  CD       -10.0430   22.8560   -6.7040 C.3    62  PRO62       0.0939
    179  N        -15.4780   25.6520   -4.3260 N.3    64  ASN64      -0.1240
    180  CA       -16.6790   25.1290   -5.0040 C.3    64  ASN64       0.1653
    181  C        -17.8950   26.0480   -4.8500 C.2    64  ASN64       0.2266
    182  O        -18.0900   26.6750   -3.7840 O.2    64  ASN64      -0.2867
    183  CB       -17.0330   23.7330   -4.4770 C.3    64  ASN64       0.1155
    184  CG       -15.9650   22.7070   -4.8080 C.2    64  ASN64       0.2627
    185  OD1      -15.8150   22.2920   -5.9600 O.2    64  ASN64      -0.2716
    186  ND2      -15.2050   22.3070   -3.7970 N.am   64  ASN64      -0.0877
    187  N        -20.9100   26.1790   -4.0050 N.3    66  VAL66      -0.1245
    188  CA       -21.9530   25.5850   -3.1650 C.3    66  VAL66       0.1561
    189  C        -22.3450   26.5730   -2.0620 C.2    66  VAL66       0.2260
    190  O        -21.5230   27.3910   -1.6140 O.2    66  VAL66      -0.2867
    191  CB       -21.5210   24.2060   -2.5370 C.3    66  VAL66       0.0252
    192  CG1      -21.2720   23.1290   -3.6160 C.3    66  VAL66       0.0019
    193  CG2      -20.3000   24.3570   -1.6200 C.3    66  VAL66       0.0019
    194  N        -23.0870   18.0580    2.1550 N.3    74  LEU74      -0.1245
    195  CA       -21.9840   17.2740    1.6260 C.3    74  LEU74       0.1561
    196  C        -21.0360   16.7750    2.7060 C.2    74  LEU74       0.2260
    197  O        -20.6280   15.6190    2.6530 O.2    74  LEU74      -0.2867
    198  CB       -21.2510   18.0340    0.5000 C.3    74  LEU74       0.0270
    199  CG       -22.0870   18.0990   -0.8090 C.3    74  LEU74       0.0019
    200  CD1      -21.6450   19.2840   -1.7100 C.3    74  LEU74       0.0001
    201  CD2      -22.0020   16.7720   -1.5720 C.3    74  LEU74       0.0001
    202  N        -20.1600   12.9610    3.5500 N.3    78  VAL78      -0.1245
    203  CA       -18.7810   12.4440    3.4160 C.3    78  VAL78       0.1561
    204  C        -18.3690   11.7450    4.7120 C.2    78  VAL78       0.2260
    205  O        -17.8450   10.6390    4.6710 O.2    78  VAL78      -0.2867
    206  CB       -17.7860   13.5560    3.0530 C.3    78  VAL78       0.0252
    207  CG1      -16.3180   13.0920    3.3030 C.3    78  VAL78       0.0019
    208  CG2      -17.9560   13.9330    1.5590 C.3    78  VAL78       0.0019
@<TRIPOS>BOND
     1    24    21    1
     2    21    22    1
     3    21    20    1
     4    23    22    2
     5    22    25   am
     6    11    10    1
     7    11    12    1
     8    47    45    1
     9    13    12    2
    10    10     3   am
    11    25    26    1
    12    30    29    1
    13    12    14   am
    14     1     2    1
    15     3     4    2
    16     3     2    1
    17    26    29    1
    18    26    27    1
    19    45    46    1
    20    45    42    1
    21     2     5    1
    22    14    15    1
    23    41    42    1
    24    16    17    2
    25    16    15    1
    26   177   176    1
    27   177   178    1
    28    42    43    1
    29     9     8    1
    30    27    31   am
    31    27    28    2
    32   176   173    1
    33    31    32    1
    34    15    18    1
    35    34    33    2
    36     7     8    1
    37     7     6    1
    38     5     6    1
    39   178   172    1
    40   155   153    1
    41   156   154    1
    42   154   153    1
    43    33    32    1
    44    43    48   am
    45    43    44    2
    46   185   184    2
    47    32    35    1
    48   163   162    1
    49   163   157    1
    50    18    19    1
    51   160   159    2
    52   173   172    1
    53   173   174    1
    54    48    49    1
    55   153   150    1
    56   162   161    1
    57   172   166   am
    58   180   181    1
    59   180   183    1
    60   180   179    1
    61   174   175    2
    62   150   151    1
    63   150   149    1
    64   181   182    2
    65   184   183    1
    66   184   186   am
    67    35    36    1
    68   157   151   am
    69   157   158    1
    70   159   158    1
    71   159   164   am
    72   161   158    1
    73    38    36   ar
    74    38    40   ar
    75   166   165    1
    76   166   167    2
    77    49    50    1
    78   151   152    2
    79    36    37   ar
    80    51    50    2
    81   165   164    1
    82   165   168    1
    83   187   188    1
    84   192   191    1
    85    70    69    1
    86    50    52   am
    87   169   168    1
    88   169   170    1
    89    40    39   ar
    90   119   117   am
    91   188   191    1
    92   188   189    1
    93    37    39   ar
    94    67    69   ar
    95    67    65   ar
    96    69    68   ar
    97   191   193    1
    98   170   171    1
    99   117   118    2
   100   117   116    1
   101    52    53    1
   102    52    58    1
   103   189   190    2
   104    55    54    2
   105   200   199    1
   106    65    64   ar
   107    68    66   ar
   108   201   199    1
   109    54    53    1
   110   116   115    1
   111   100    99    2
   112    53    56    1
   113    58    57    1
   114   108   107    2
   115   115   112    1
   116   199   198    1
   117   147   148    2
   118   147   146    1
   119    64    66   ar
   120    64    63    1
   121   103   101    1
   122    59    60    1
   123   105   106    1
   124    99    98    1
   125   107   111   am
   126   107   106    1
   127   146   145    1
   128   112   111    1
   129   112   113    1
   130    56    57    1
   131    63    60    1
   132   198   195    1
   133    98   101    1
   134    98    97    1
   135    89    88    2
   136   106   109    1
   137    60    61    1
   138   145   133   am
   139   101   102    1
   140   120   113   am
   141   120   121    1
   142   102   104    1
   143   113   114    2
   144   134   133    2
   145   110   109    1
   146   133   132    1
   147   135   132    1
   148   135   136    1
   149   208   206    1
   150   195   194    1
   151   195   196    1
   152    88    97   am
   153    88    87    1
   154    61    62    2
   155   121   122    1
   156   132   131    1
   157   136   137   ar
   158   136   138   ar
   159    77    75    1
   160   197   196    2
   161   131   126   am
   162   141   138   ar
   163   141   143   ar
   164   137   139   ar
   165   138   140   ar
   166   206   207    1
   167   206   203    1
   168    87    90    1
   169    87    86    1
   170   124   122   am
   171   124   125    1
   172   122   123    2
   173   203   202    1
   174   203   204    1
   175   143   144   ar
   176    90    91    1
   177   139   140   ar
   178    75    76    1
   179    75    72    1
   180   140   142   ar
   181    71    72    1
   182   126   125    1
   183   126   127    2
   184    81    80    2
   185   128   125    1
   186   128   130    1
   187   128   129    1
   188   144   142   ar
   189    72    73    1
   190    91    92    1
   191   205   204    2
   192    92    93    1
   193    80    79    1
   194    84    83    1
   195    73    74    2
   196    85    83    1
   197    93    94    2
   198    82    79    1
   199    82    83    1
   200    79    78    1
   201    94    95    1
   202    94    96    1
