@<TRIPOS>MOLECULE
tmp/2ez9B00.pdb
 177 172 0 0 0
SMALL
GASTEIGER

@<TRIPOS>ATOM
      1  N         37.9910   75.9150    4.5410 N.3    84  ASN84      -0.1240
      2  CA        37.5110   76.5540    5.7780 C.3    84  ASN84       0.1653
      3  C         37.4230   75.6080    6.9550 C.2    84  ASN84       0.2266
      4  O         37.6740   76.0050    8.0950 O.2    84  ASN84      -0.2867
      5  CB        36.2350   77.3680    5.5830 C.3    84  ASN84       0.1155
      6  CG        36.5200   78.7090    4.9180 C.2    84  ASN84       0.2627
      7  OD1       37.2460   78.7570    3.9260 O.2    84  ASN84      -0.2716
      8  ND2       35.9450   79.7940    5.4500 N.am   84  ASN84      -0.0877
      9  N         28.8520   81.7710   13.9360 N.3   386  VAL386     -0.1231
     10  CA        29.7960   82.8580   14.2260 C.3   386  VAL386      0.1692
     11  C         29.1280   84.2050   13.9750 C.2   386  VAL386      0.2593
     12  O         28.6230   84.4630   12.8720 O.2   386  VAL386     -0.2718
     13  CB        31.1000   82.7110   13.3750 C.3   386  VAL386      0.0266
     14  CG1       31.9960   83.9470   13.4740 C.3   386  VAL386      0.0020
     15  CG2       31.8710   81.4380   13.7570 C.3   386  VAL386      0.0020
     16  N         29.1150   85.0440   15.0090 N.am  387  GLY387     -0.1942
     17  CA        28.5020   86.3750   14.9370 C.3   387  GLY387      0.2014
     18  C         27.8990   86.7560   16.2740 C.2   387  GLY387      0.2639
     19  O         28.4020   86.3280   17.3270 O.2   387  GLY387     -0.2714
     20  N         26.8300   87.5620   16.2460 N.am  388  ASP388     -0.1957
     21  CA        26.1440   87.9500   17.4920 C.3   388  ASP388      0.1840
     22  C         25.7440   86.7250   18.3170 C.2   388  ASP388      0.2621
     23  O         25.6920   86.8000   19.5390 O.2   388  ASP388     -0.2715
     24  CB        24.8790   88.7820   17.2150 C.3   388  ASP388      0.1450
     25  CG        25.1580   90.2570   16.9650 C.2   388  ASP388      0.3671
     26  OD1       26.2500   90.7810   17.2960 O.co2 388  ASP388     -0.2456
     27  OD2       24.2240   90.9190   16.4470 O.co2 388  ASP388     -0.2456
     28  N         25.4550   85.6070   17.6510 N.am  389  ILE389     -0.1977
     29  CA        25.0560   84.3870   18.3600 C.3   389  ILE389      0.1596
     30  C         26.0980   83.9460   19.3940 C.2   389  ILE389      0.2287
     31  O         25.7300   83.4420   20.4570 O.2   389  ILE389     -0.2864
     32  CB        24.6640   83.2220   17.3940 C.3   389  ILE389      0.0276
     33  CG1       23.9850   82.0680   18.1640 C.3   389  ILE389      0.0022
     34  CG2       25.8710   82.7050   16.6260 C.3   389  ILE389      0.0022
     35  CD1       22.7760   82.4780   19.0110 C.3   389  ILE389      0.0001
     36  N         39.7180   80.5310   14.2750 N.3   411  PHE411     -0.1227
     37  CA        39.5800   80.8720   12.8590 C.3   411  PHE411      0.1736
     38  C         38.2560   81.5950   12.6700 C.2   411  PHE411      0.2595
     39  O         38.1320   82.4750   11.8210 O.2   411  PHE411     -0.2718
     40  CB        39.6480   79.5830   12.0230 C.3   411  PHE411      0.0547
     41  CG        39.8280   79.8020   10.5420 C.ar  411  PHE411     -0.0202
     42  CD1       40.9470   80.4800   10.0510 C.ar  411  PHE411     -0.0042
     43  CD2       38.8960   79.2900    9.6420 C.ar  411  PHE411     -0.0042
     44  CE1       41.1190   80.6690    8.6620 C.ar  411  PHE411     -0.0003
     45  CE2       39.0560   79.4580    8.2590 C.ar  411  PHE411     -0.0003
     46  CZ        40.1650   80.1500    7.7720 C.ar  411  PHE411     -0.0000
     47  N         37.2670   81.2110   13.4820 N.am  412  ALA412     -0.1966
     48  CA        35.9500   81.8460   13.4920 C.3   412  ALA412      0.1728
     49  C         35.3060   81.8740   12.1100 C.2   412  ALA412      0.2617
     50  O         34.8080   82.9050   11.6580 O.2   412  ALA412     -0.2715
     51  CB        36.0190   83.2460   14.1100 C.3   412  ALA412      0.0334
     52  N         35.3110   80.7320   11.4360 N.am  413  THR413     -0.1937
     53  CA        34.6460   80.6480   10.1410 C.3   413  THR413      0.2028
     54  C         33.1370   80.5620   10.3140 C.2   413  THR413      0.2642
     55  O         32.6290   79.6940   11.0300 O.2   413  THR413     -0.2714
     56  CB        35.1690   79.4860    9.2500 C.3   413  THR413      0.1808
     57  OG1       34.4490   79.4960    8.0090 O.3   413  THR413     -0.2208
     58  CG2       35.0450   78.1130    9.9350 C.3   413  THR413      0.0379
     59  N         32.4170   81.4900    9.6840 N.am  414  MET414     -0.1976
     60  CA        30.9660   81.3730    9.6070 C.3   414  MET414      0.1605
     61  C         30.5860   80.0800    8.8870 C.2   414  MET414      0.2287
     62  O         31.3630   79.5490    8.0850 O.2   414  MET414     -0.2864
     63  CB        30.3880   82.5480    8.8320 C.3   414  MET414      0.0413
     64  CG        30.4900   83.8790    9.5690 C.3   414  MET414      0.0598
     65  SD        30.1870   85.2450    8.4260 S.3   414  MET414     -0.1393
     66  CE        28.5130   84.9250    7.8850 C.3   414  MET414      0.0692
     67  N         23.3230   82.6320   13.0600 N.3   438  GLY438     -0.1210
     68  CA        22.8360   83.8530   12.4040 C.3   438  GLY438      0.1956
     69  C         22.4360   83.5720   10.9670 C.2   438  GLY438      0.2612
     70  O         22.8200   82.5420   10.3920 O.2   438  GLY438     -0.2717
     71  N         21.6710   84.4920   10.3810 N.am  439  ASP439     -0.1959
     72  CA        21.2340   84.3330    8.9930 C.3   439  ASP439      0.1840
     73  C         22.4000   84.3890    8.0010 C.2   439  ASP439      0.2623
     74  O         22.3770   83.6860    6.9850 O.2   439  ASP439     -0.2715
     75  CB        20.0860   85.2990    8.6230 C.3   439  ASP439      0.1450
     76  CG        20.3920   86.7650    8.9250 C.2   439  ASP439      0.3671
     77  OD1       21.4630   87.1120    9.4770 O.co2 439  ASP439     -0.2456
     78  OD2       19.5240   87.5970    8.5910 O.co2 439  ASP439     -0.2456
     79  N         23.4190   85.2020    8.2940 N.am  440  GLY440     -0.1940
     80  CA        24.6170   85.2390    7.4490 C.3   440  GLY440      0.2014
     81  C         25.3320   83.8970    7.3840 C.2   440  GLY440      0.2639
     82  O         25.6830   83.4110    6.3010 O.2   440  GLY440     -0.2714
     83  N         25.5590   83.2980    8.5480 N.am  441  GLY441     -0.1954
     84  CA        26.2900   82.0410    8.6170 C.3   441  GLY441      0.1869
     85  C         25.4530   80.8750    8.1320 C.2   441  GLY441      0.2309
     86  O         25.9580   79.9990    7.4260 O.2   441  GLY441     -0.2863
     87  N         25.4910   80.5440    4.4270 N.3   444  MET444     -0.1245
     88  CA        26.7120   80.0280    3.7910 C.3   444  MET444      0.1570
     89  C         26.7330   78.5160    3.6220 C.2   444  MET444      0.2261
     90  O         27.3500   78.0100    2.6720 O.2   444  MET444     -0.2867
     91  CB        27.9590   80.4860    4.5410 C.3   444  MET444      0.0387
     92  CG        28.2650   81.9290    4.2500 C.3   444  MET444      0.0595
     93  SD        29.6990   82.4640    5.1750 S.3   444  MET444     -0.1393
     94  CE        29.8140   84.1840    4.6540 C.3   444  MET444      0.0692
     95  N         18.7490   83.0560   13.4110 N.3   464  PHE464     -0.1241
     96  CA        18.4670   84.3750   13.9520 C.3   464  PHE464      0.1605
     97  C         18.5130   85.3480   12.7860 C.2   464  PHE464      0.2264
     98  O         19.5900   85.7700   12.3350 O.2   464  PHE464     -0.2867
     99  CB        19.4900   84.7220   15.0350 C.3   464  PHE464      0.0534
    100  CG        19.3400   83.8890   16.2920 C.ar  464  PHE464     -0.0203
    101  CD1       19.6950   82.5400   16.3020 C.ar  464  PHE464     -0.0042
    102  CD2       18.8380   84.4630   17.4650 C.ar  464  PHE464     -0.0042
    103  CE1       19.5540   81.7690   17.4530 C.ar  464  PHE464     -0.0003
    104  CE2       18.6890   83.7050   18.6270 C.ar  464  PHE464     -0.0003
    105  CZ        19.0610   82.3480   18.6270 C.ar  464  PHE464     -0.0000
    106  N         18.1630   88.6870   11.2900 N.3   466  ASN466     -0.1240
    107  CA        18.1250   90.1390   11.4540 C.3   466  ASN466      0.1653
    108  C         18.3120   90.8900   10.1350 C.2   466  ASN466      0.2266
    109  O         18.2820   92.1210   10.1150 O.2   466  ASN466     -0.2867
    110  CB        19.1450   90.6230   12.5020 C.3   466  ASN466      0.1155
    111  CG        20.5480   90.0650   12.2790 C.2   466  ASN466      0.2627
    112  OD1       20.8900   89.5620   11.1960 O.2   466  ASN466     -0.2716
    113  ND2       21.3710   90.1530   13.3170 N.am  466  ASN466     -0.0877
    114  N         21.0070   91.1940    8.6060 N.3   468  GLN468     -0.1231
    115  CA        22.2570   91.9220    8.7920 C.3   468  GLN468      0.1698
    116  C         23.4150   90.9640    9.0520 C.2   468  GLN468      0.2592
    117  O         23.2020   89.8530    9.5330 O.2   468  GLN468     -0.2718
    118  CB        22.1730   92.8580   10.0070 C.3   468  GLN468      0.0381
    119  CG        21.0770   93.8990    9.9740 C.3   468  GLN468      0.0905
    120  CD        20.9880   94.7040   11.2620 C.2   468  GLN468      0.2608
    121  OE1       20.4630   95.8270   11.2780 O.2   468  GLN468     -0.2717
    122  NE2       21.5150   94.1460   12.3460 N.am  468  GLN468     -0.0878
    123  N         24.6330   91.4080    8.7560 N.am  469  TYR469     -0.1962
    124  CA        25.8160   90.8770    9.4410 C.3   469  TYR469      0.1771
    125  C         25.9470   91.7740   10.6790 C.2   469  TYR469      0.2620
    126  O         26.7220   92.7320   10.6870 O.2   469  TYR469     -0.2715
    127  CB        27.0700   90.9620    8.5680 C.3   469  TYR469      0.0574
    128  CG        27.0030   90.1470    7.2910 C.ar  469  TYR469     -0.0198
    129  CD1       26.7340   88.7840    7.3280 C.ar  469  TYR469     -0.0009
    130  CD2       27.2090   90.7540    6.0460 C.ar  469  TYR469     -0.0009
    131  CE1       26.6650   88.0330    6.1440 C.ar  469  TYR469      0.0417
    132  CE2       27.1540   90.0170    4.8630 C.ar  469  TYR469      0.0417
    133  CZ        26.8850   88.6590    4.9230 C.ar  469  TYR469      0.1957
    134  OH        26.8160   87.9230    3.7620 O.3   469  TYR469     -0.2866
    135  N         25.1570   91.4810   11.7140 N.am  470  GLY470     -0.1940
    136  CA        25.0520   92.3660   12.8840 C.3   470  GLY470      0.2014
    137  C         26.3870   92.6030   13.5590 C.2   470  GLY470      0.2639
    138  O         26.7290   93.7400   13.8990 O.2   470  GLY470     -0.2714
    139  N         27.1520   91.5210   13.7300 N.am  471  TRP471     -0.1959
    140  CA        28.4550   91.5950   14.3700 C.3   471  TRP471      0.1771
    141  C         29.3170   92.6320   13.6670 C.2   471  TRP471      0.2619
    142  O         30.0110   93.4070   14.3190 O.2   471  TRP471     -0.2715
    143  CB        29.1180   90.2280   14.2980 C.3   471  TRP471      0.0590
    144  CG        30.3010   90.0070   15.1980 C.ar  471  TRP471      0.0006
    145  CD1       31.6050   89.8440   14.8150 C.ar  471  TRP471      0.0946
    146  CD2       30.2810   89.8510   16.6220 C.ar  471  TRP471      0.0152
    147  NE1       32.4000   89.6050   15.9150 N.ar  471  TRP471     -0.2442
    148  CE2       31.6150   89.6060   17.0370 C.ar  471  TRP471      0.0810
    149  CE3       29.2690   89.9090   17.5890 C.ar  471  TRP471      0.0012
    150  CZ2       31.9650   89.4270   18.3890 C.ar  471  TRP471      0.0191
    151  CZ3       29.6150   89.7200   18.9350 C.ar  471  TRP471      0.0001
    152  CH2       30.9560   89.4820   19.3150 C.ar  471  TRP471      0.0015
    153  N         29.2480   92.6540   12.3340 N.am  472  ILE472     -0.1977
    154  CA        30.0500   93.5810   11.5310 C.3   472  ILE472      0.1596
    155  C         29.4490   94.9920   11.4640 C.2   472  ILE472      0.2287
    156  O         30.1840   95.9860   11.4370 O.2   472  ILE472     -0.2864
    157  CB        30.2900   93.0150   10.1110 C.3   472  ILE472      0.0276
    158  CG1       30.8280   91.5820   10.2020 C.3   472  ILE472      0.0022
    159  CG2       31.2460   93.9170    9.3140 C.3   472  ILE472      0.0022
    160  CD1       32.0850   91.4160   11.0740 C.3   472  ILE472      0.0001
    161  N         30.6580   96.7580   14.4170 N.3   475  GLU475     -0.1245
    162  CA        32.0510   97.1680   14.2480 C.3   475  GLU475      0.1567
    163  C         32.1510   98.4340   13.3970 C.2   475  GLU475      0.2260
    164  O         32.8880   99.3580   13.7390 O.2   475  GLU475     -0.2867
    165  CB        32.8660   96.0510   13.5940 C.3   475  GLU475      0.0388
    166  CG        33.0090   94.8090   14.4720 C.3   475  GLU475      0.1160
    167  CD        33.5900   93.6240   13.7230 C.2   475  GLU475      0.3649
    168  OE1       33.9190   93.7680   12.5160 O.co2 475  GLU475     -0.2457
    169  OE2       33.6900   92.5440   14.3430 O.co2 475  GLU475     -0.2457
    170  N         14.2840   88.6150   14.0810 N.3   536  ILE536     -0.1245
    171  CA        14.6160   89.4330   15.2580 C.3   536  ILE536      0.1561
    172  C         14.9320   90.8980   14.9200 C.2   536  ILE536      0.2260
    173  O         15.2470   91.2370   13.7690 O.2   536  ILE536     -0.2867
    174  CB        15.7940   88.8290   16.0690 C.3   536  ILE536      0.0252
    175  CG1       17.0500   88.7080   15.1910 C.3   536  ILE536      0.0019
    176  CG2       15.4000   87.4790   16.6820 C.3   536  ILE536      0.0019
    177  CD1       18.3440   88.6260   15.9750 C.3   536  ILE536      0.0001
@<TRIPOS>BOND
     1    90    89    2
     2    89    88    1
     3   134   133    1
     4    88    87    1
     5    88    91    1
     6     7     6    2
     7    92    91    1
     8    92    93    1
     9     1     2    1
    10    94    93    1
    11   132   133   ar
    12   132   130   ar
    13     6     8   am
    14     6     5    1
    15   133   131   ar
    16     5     2    1
    17     2     3    1
    18   130   128   ar
    19   131   129   ar
    20    82    81    2
    21     3     4    2
    22    74    73    2
    23   128   129   ar
    24   128   127    1
    25    81    80    1
    26    81    83   am
    27    86    85    2
    28    80    79    1
    29    46    45   ar
    30    46    44   ar
    31    66    65    1
    32    73    79   am
    33    73    72    1
    34    57    56    1
    35    62    61    2
    36    85    84    1
    37    45    43   ar
    38    65    64    1
    39    83    84    1
    40   127   124    1
    41    78    76   ar
    42   114   115    1
    43    75    76    1
    44    75    72    1
    45    44    42   ar
    46   123   116   am
    47   123   124    1
    48   115   116    1
    49   115   118    1
    50    63    64    1
    51    63    60    1
    52    61    60    1
    53    76    77   ar
    54    72    71    1
    55   116   117    2
    56    56    58    1
    57    56    53    1
    58   159   157    1
    59   124   125    1
    60    60    59    1
    61    43    41   ar
    62    59    54   am
    63   119   118    1
    64   119   120    1
    65    42    41   ar
    66   157   158    1
    67   157   154    1
    68   109   108    2
    69   108   107    1
    70    53    54    1
    71    53    52    1
    72   158   160    1
    73    54    55    2
    74    71    69   am
    75    70    69    2
    76    41    40    1
    77   125   126    2
    78   125   135   am
    79    69    68    1
    80   112   111    2
    81   120   121    2
    82   120   122   am
    83   106   107    1
    84    52    49   am
    85   156   155    2
    86   107   110    1
    87   155   154    1
    88   154   153    1
    89    50    49    2
    90   135   136    1
    91    39    38    2
    92    40    37    1
    93    49    48    1
    94   111   110    1
    95   111   113   am
    96   153   141   am
    97    98    97    2
    98    68    67    1
    99   168   167   ar
   100    38    37    1
   101    38    47   am
   102    97    96    1
   103    37    36    1
   104    12    11    2
   105   136   137    1
   106    13    14    1
   107    13    15    1
   108    13    10    1
   109   163   164    2
   110   163   162    1
   111    95    96    1
   112    47    48    1
   113    48    51    1
   114   137   139   am
   115   137   138    2
   116   165   162    1
   117   165   166    1
   118   141   142    2
   119   141   140    1
   120   167   169   ar
   121   167   166    1
   122   139   140    1
   123   173   172    2
   124     9    10    1
   125    96    99    1
   126    11    10    1
   127    11    16   am
   128   170   171    1
   129   162   161    1
   130   143   140    1
   131   143   144    1
   132   145   144   ar
   133   145   147   ar
   134   172   171    1
   135    17    16    1
   136    17    18    1
   137    99   100    1
   138   175   177    1
   139   175   174    1
   140   144   146   ar
   141   171   174    1
   142   147   148   ar
   143   174   176    1
   144    20    18   am
   145    20    21    1
   146    18    19    2
   147   100   101   ar
   148   100   102   ar
   149   101   103   ar
   150    27    25   ar
   151   146   148   ar
   152   146   149   ar
   153    34    32    1
   154    25    24    1
   155    25    26   ar
   156   148   150   ar
   157    24    21    1
   158    32    33    1
   159    32    29    1
   160   103   105   ar
   161   102   104   ar
   162    21    22    1
   163   149   151   ar
   164    28    22   am
   165    28    29    1
   166    33    35    1
   167    22    23    2
   168    29    30    1
   169   150   152   ar
   170   104   105   ar
   171   151   152   ar
   172    30    31    2
