@<TRIPOS>MOLECULE
tmp/2f02A00.pdb
 167 153 0 0 0
SMALL
GASTEIGER

@<TRIPOS>ATOM
      1  N         49.3070   28.0010   23.2980 N.3    38  LYS38      -0.1245
      2  CA        49.0600   27.7050   24.7090 C.3    38  LYS38       0.1561
      3  C         47.8920   28.5100   25.3030 C.2    38  LYS38       0.2260
      4  O         47.0380   27.9600   25.9870 O.2    38  LYS38      -0.2867
      5  CB        50.3240   27.9810   25.5330 C.3    38  LYS38       0.0271
      6  CG        51.4390   26.9670   25.3410 C.3    38  LYS38       0.0035
      7  CD        52.7320   27.4000   26.0010 C.3    38  LYS38       0.0206
      8  CE        52.6280   27.4870   27.5240 C.3    38  LYS38       0.1093
      9  NZ        52.4120   26.1500   28.1470 N.3    38  LYS38      -0.1314
     10  N         52.4820   31.8000   32.6850 N.3   163  ASP163     -0.1239
     11  CA        53.0100   30.4950   32.2500 C.3   163  ASP163      0.1674
     12  C         53.8730   30.6870   30.9990 C.2   163  ASP163      0.2266
     13  O         53.4040   30.5490   29.8720 O.2   163  ASP163     -0.2867
     14  CB        51.8800   29.4840   31.9830 C.3   163  ASP163      0.1410
     15  CG        52.4060   28.0890   31.6050 C.2   163  ASP163      0.3668
     16  OD1       53.5800   27.7810   31.9300 O.co2 163  ASP163     -0.2456
     17  OD2       51.6420   27.3030   30.9770 O.co2 163  ASP163     -0.2456
     18  N         53.5910   28.8060   37.1280 N.3   183  LYS183     -0.1245
     19  CA        53.5250   27.3210   37.0890 C.3   183  LYS183      0.1561
     20  C         54.6400   26.6960   36.2460 C.2   183  LYS183      0.2260
     21  O         54.3790   26.1160   35.1700 O.2   183  LYS183     -0.2867
     22  CB        52.1640   26.8200   36.5690 C.3   183  LYS183      0.0271
     23  CG        51.9490   25.2710   36.7310 C.3   183  LYS183      0.0035
     24  CD        51.0860   24.6330   35.6180 C.3   183  LYS183      0.0206
     25  CE        51.7970   24.6180   34.2500 C.3   183  LYS183      0.1093
     26  NZ        52.9820   23.7210   34.2730 N.3   183  LYS183     -0.1314
     27  N         57.0610   23.7740   35.1760 N.3   185  ASN185     -0.1240
     28  CA        57.2580   22.3220   35.3560 C.3   185  ASN185      0.1653
     29  C         58.6950   22.0450   35.8160 C.2   185  ASN185      0.2266
     30  O         59.5170   22.9530   35.8230 O.2   185  ASN185     -0.2867
     31  CB        56.8500   21.5330   34.0970 C.3   185  ASN185      0.1155
     32  CG        57.7650   21.7840   32.8780 C.2   185  ASN185      0.2627
     33  OD1       58.9040   22.2400   32.9950 O.2   185  ASN185     -0.2716
     34  ND2       57.2470   21.4600   31.7020 N.am  185  ASN185     -0.0877
     35  N         61.5470   23.1020   33.3880 N.3   188  GLU188     -0.1245
     36  CA        61.6120   24.5630   33.3910 C.3   188  GLU188      0.1567
     37  C         62.3650   25.0520   34.6450 C.2   188  GLU188      0.2260
     38  O         63.2580   25.8970   34.5570 O.2   188  GLU188     -0.2867
     39  CB        60.1970   25.1730   33.2370 C.3   188  GLU188      0.0388
     40  CG        59.6450   25.0020   31.7950 C.3   188  GLU188      0.1160
     41  CD        58.1570   25.3300   31.5940 C.2   188  GLU188      0.3649
     42  OE1       57.3750   25.4600   32.5700 O.co2 188  GLU188     -0.2457
     43  OE2       57.7620   25.4400   30.4110 O.co2 188  GLU188     -0.2457
     44  N         54.1500   21.6650   38.6050 N.3   222  SER222     -0.1217
     45  CA        53.4030   20.4860   38.1690 C.3   222  SER222      0.1889
     46  C         54.3860   19.3620   37.8100 C.2   222  SER222      0.2288
     47  O         55.4690   19.6030   37.2750 O.2   222  SER222     -0.2866
     48  CB        52.4230   20.8040   37.0210 C.3   222  SER222      0.2089
     49  OG        53.0910   21.2030   35.8300 O.3   222  SER222     -0.2183
     50  N         53.4310   16.2390   36.1720 N.3   224  GLY224     -0.1210
     51  CA        52.6950   15.2770   35.3420 C.3   224  GLY224      0.1956
     52  C         51.8380   14.3070   36.1430 C.2   224  GLY224      0.2611
     53  O         51.0730   14.7090   37.0350 O.2   224  GLY224     -0.2717
     54  N         52.0000   13.0110   35.8730 N.am  225  LYS225     -0.1979
     55  CA        51.1980   11.9910   36.5460 C.3   225  LYS225      0.1596
     56  C         51.3910   11.9510   38.0720 C.2   225  LYS225      0.2287
     57  O         50.5290   11.4270   38.7750 O.2   225  LYS225     -0.2864
     58  CB        51.4670   10.5960   35.9310 C.3   225  LYS225      0.0298
     59  CG        52.8700   10.0290   36.2010 C.3   225  LYS225      0.0038
     60  CD        53.0250    8.6290   35.5740 C.3   225  LYS225      0.0206
     61  CE        54.4410    8.0950   35.7140 C.3   225  LYS225      0.1093
     62  NZ        54.6110    6.7520   35.0420 N.3   225  LYS225     -0.1314
     63  N         51.3610   14.5280   40.1630 N.3   227  GLY227     -0.1210
     64  CA        50.5990   15.5950   40.8200 C.3   227  GLY227      0.1956
     65  C         51.3320   16.9330   40.7800 C.2   227  GLY227      0.2611
     66  O         51.6700   17.4210   39.6940 O.2   227  GLY227     -0.2717
     67  N         51.5850   17.5100   41.9570 N.am  228  ALA228     -0.1979
     68  CA        52.2760   18.8020   42.0710 C.3   228  ALA228      0.1597
     69  C         52.8920   19.0860   43.4560 C.2   228  ALA228      0.2287
     70  O         52.5350   18.4690   44.4760 O.2   228  ALA228     -0.2864
     71  CB        51.3230   19.9440   41.6930 C.3   228  ALA228      0.0319
     72  N         47.6060   12.7840   43.2000 N.3   241  ILE241     -0.1231
     73  CA        46.4730   12.5350   42.2930 C.3   241  ILE241      0.1678
     74  C         46.3260   11.0440   41.9510 C.2   241  ILE241      0.2434
     75  O         47.3090   10.3040   41.9930 O.2   241  ILE241     -0.2733
     76  CB        46.5990   13.3680   40.9920 C.3   241  ILE241      0.0265
     77  CG1       47.8270   12.9480   40.1680 C.3   241  ILE241      0.0019
     78  CG2       46.6750   14.8900   41.3400 C.3   241  ILE241      0.0020
     79  CD1       47.9470   13.6330   38.7950 C.3   241  ILE241      0.0001
     80  N         45.1070   10.6040   41.6100 N.am  242  PRO242     -0.2718
     81  CA        44.9560    9.2040   41.2030 C.3   242  PRO242      0.1535
     82  C         45.4410    8.9050   39.7810 C.2   242  PRO242      0.2599
     83  O         45.6660    9.8230   38.9710 O.2   242  PRO242     -0.2715
     84  CB        43.4480    8.9660   41.3190 C.3   242  PRO242      0.0310
     85  CG        42.8350   10.2790   41.0950 C.3   242  PRO242      0.0237
     86  CD        43.8170   11.3140   41.6130 C.3   242  PRO242      0.0939
     87  N         45.5880    7.6110   39.4910 N.am  243  THR243     -0.1937
     88  CA        46.0000    7.1460   38.1730 C.3   243  THR243      0.2028
     89  C         44.8620    7.3000   37.1770 C.2   243  THR243      0.2642
     90  O         43.6990    7.1220   37.5240 O.2   243  THR243     -0.2714
     91  CB        46.4230    5.6570   38.2180 C.3   243  THR243      0.1808
     92  OG1       47.4420    5.4870   39.2040 O.3   243  THR243     -0.2208
     93  CG2       46.9580    5.1940   36.8650 C.3   243  THR243      0.0379
     94  N         45.2010    7.6450   35.9400 N.am  244  ILE244     -0.1977
     95  CA        44.2250    7.6770   34.8530 C.3   244  ILE244      0.1596
     96  C         44.8140    7.0640   33.5790 C.2   244  ILE244      0.2287
     97  O         46.0400    6.9330   33.4440 O.2   244  ILE244     -0.2864
     98  CB        43.7630    9.1210   34.5250 C.3   244  ILE244      0.0276
     99  CG1       44.9090    9.9190   33.8880 C.3   244  ILE244      0.0022
    100  CG2       43.2120    9.8160   35.7790 C.3   244  ILE244      0.0022
    101  CD1       44.5490   11.3510   33.5130 C.3   244  ILE244      0.0001
    102  N         45.6310    7.9890   30.1340 N.3   246  ALA246     -0.1245
    103  CA        45.8490    9.1930   29.3360 C.3   246  ALA246      0.1562
    104  C         45.7600    8.8630   27.8530 C.2   246  ALA246      0.2260
    105  O         46.4160    7.9300   27.3870 O.2   246  ALA246     -0.2867
    106  CB        47.2130    9.8000   29.6590 C.3   246  ALA246      0.0290
    107  N         48.2550   13.6890   26.6130 N.3   249  PRO249     -0.2102
    108  CA        48.5560   14.6740   27.6640 C.3   249  PRO249      0.1504
    109  C         49.0810   16.0230   27.1640 C.2   249  PRO249      0.2576
    110  O         49.4110   16.8810   27.9910 O.2   249  PRO249     -0.2718
    111  CB        49.6270   13.9740   28.5130 C.3   249  PRO249      0.0282
    112  CG        50.2610   12.9790   27.6110 C.3   249  PRO249      0.0208
    113  CD        49.3520   12.7200   26.4410 C.3   249  PRO249      0.0893
    114  N         49.1690   16.2210   25.8500 N.am  250  VAL250     -0.1966
    115  CA        49.6270   17.5010   25.3090 C.3   250  VAL250      0.1727
    116  C         48.6390   18.5980   25.7070 C.2   250  VAL250      0.2617
    117  O         47.4200   18.4230   25.5860 O.2   250  VAL250     -0.2715
    118  CB        49.7990   17.4620   23.7720 C.3   250  VAL250      0.0290
    119  CG1       50.0230   18.8700   23.2170 C.3   250  VAL250      0.0023
    120  CG2       50.9670   16.5370   23.3920 C.3   250  VAL250      0.0023
    121  N         49.1680   19.7080   26.2200 N.am  251  GLY251     -0.1940
    122  CA        48.3370   20.8150   26.6780 C.3   251  GLY251      0.2014
    123  C         47.7600   20.6970   28.0830 C.2   251  GLY251      0.2640
    124  O         46.9710   21.5460   28.4940 O.2   251  GLY251     -0.2714
    125  N         48.1540   19.6680   28.8300 N.am  252  SER252     -0.1935
    126  CA        47.6550   19.4740   30.1960 C.3   252  SER252      0.2055
    127  C         48.1320   20.5920   31.1380 C.2   252  SER252      0.2644
    128  O         47.4320   20.9460   32.0750 O.2   252  SER252     -0.2714
    129  CB        48.0590   18.1030   30.7350 C.3   252  SER252      0.2130
    130  OG        47.3580   17.0730   30.0330 O.3   252  SER252     -0.2179
    131  N         49.3100   21.1480   30.8630 N.am  253  GLY253     -0.1939
    132  CA        49.8240   22.3090   31.6120 C.3   253  GLY253      0.2014
    133  C         48.9340   23.5320   31.4300 C.2   253  GLY253      0.2638
    134  O         48.6150   24.2420   32.3950 O.2   253  GLY253     -0.2714
    135  N         48.5350   23.7760   30.1880 N.am  254  ASP254     -0.1971
    136  CA        47.5740   24.8350   29.8720 C.3   254  ASP254      0.1709
    137  C         46.2150   24.6110   30.5630 C.2   254  ASP254      0.2293
    138  O         45.6000   25.5460   31.0830 O.2   254  ASP254     -0.2864
    139  CB        47.3810   24.9510   28.3620 C.3   254  ASP254      0.1436
    140  CG        48.6850   25.1660   27.6010 C.2   254  ASP254      0.3671
    141  OD1       48.8160   24.6090   26.4870 O.co2 254  ASP254     -0.2456
    142  OD2       49.5720   25.9130   28.0870 O.co2 254  ASP254     -0.2456
    143  N         45.7760   23.0190   33.3350 N.3   256  THR256     -0.1218
    144  CA        46.0090   23.3120   34.7550 C.3   256  THR256      0.1862
    145  C         45.9100   24.8230   35.0320 C.2   256  THR256      0.2287
    146  O         45.3060   25.2370   36.0170 O.2   256  THR256     -0.2866
    147  CB        47.3620   22.7420   35.2600 C.3   256  THR256      0.1770
    148  OG1       47.3650   21.3110   35.1130 O.3   256  THR256     -0.2211
    149  CG2       47.5630   23.0700   36.7450 C.3   256  THR256      0.0375
    150  N         42.9380   22.9960   39.5780 N.3   277  GLY277     -0.1225
    151  CA        44.0850   22.9000   38.6600 C.3   277  GLY277      0.1811
    152  C         44.4030   21.4700   38.2260 C.2   277  GLY277      0.2280
    153  O         44.5430   21.1770   37.0180 O.2   277  GLY277     -0.2866
    154  N         42.4580   18.7060   38.5470 N.3   278  ALA278     -0.1245
    155  CA        41.2980   18.0470   37.9050 C.3   278  ALA278      0.1562
    156  C         41.2070   18.3850   36.4090 C.2   278  ALA278      0.2260
    157  O         40.9080   17.5190   35.5860 O.2   278  ALA278     -0.2867
    158  CB        40.0150   18.4040   38.6330 C.3   278  ALA278      0.0290
    159  N         43.8250   19.5020   34.3730 N.3   280  GLY280     -0.1225
    160  CA        44.9530   18.8890   33.6780 C.3   280  GLY280      0.1811
    161  C         44.7120   17.4090   33.4080 C.2   280  GLY280      0.2280
    162  O         44.9880   16.9140   32.3070 O.2   280  GLY280     -0.2866
    163  N         44.2660   15.3630   29.7380 N.3   283  ALA283     -0.1245
    164  CA        45.0960   14.2020   29.4510 C.3   283  ALA283      0.1562
    165  C         44.2610   12.9880   29.0080 C.2   283  ALA283      0.2260
    166  O         44.7410   12.1510   28.2280 O.2   283  ALA283     -0.2867
    167  CB        45.9330   13.8560   30.6800 C.3   283  ALA283      0.0290
@<TRIPOS>BOND
     1   119   118    1
     2     1     2    1
     3   120   118    1
     4   118   115    1
     5     2     3    1
     6     2     5    1
     7     3     4    2
     8   115   116    1
     9   115   114    1
    10     6     5    1
    11     6     7    1
    12   117   116    2
    13   116   121   am
    14   114   109   am
    15     7     8    1
    16   121   122    1
    17   113   107    1
    18   113   112    1
    19   141   140   ar
    20   107   108    1
    21   122   123    1
    22   109   108    1
    23   109   110    2
    24   105   104    2
    25     8     9    1
    26   140   142   ar
    27   140   139    1
    28   112   111    1
    29   108   111    1
    30   104   103    1
    31   123   124    2
    32   123   125   am
    33   166   165    2
    34   139   136    1
    35   125   126    1
    36   165   164    1
    37   103   106    1
    38   103   102    1
    39   164   163    1
    40   164   167    1
    41   136   135    1
    42   136   137    1
    43    13    12    2
    44   130   129    1
    45   135   133   am
    46   126   129    1
    47   126   127    1
    48    43    41   ar
    49   137   138    2
    50   131   127   am
    51   131   132    1
    52    17    15   ar
    53    12    11    1
    54   127   128    2
    55   133   132    1
    56   133   134    2
    57    41    40    1
    58    41    42   ar
    59    15    16   ar
    60    15    14    1
    61    34    32   am
    62    40    39    1
    63    14    11    1
    64    11    10    1
    65   162   161    2
    66    32    33    2
    67    32    31    1
    68    39    36    1
    69   143   144    1
    70    35    36    1
    71    36    37    1
    72   161   160    1
    73    97    96    2
    74   101    99    1
    75    96    95    1
    76   160   159    1
    77    99    98    1
    78    31    28    1
    79    25    26    1
    80    25    24    1
    81    98    95    1
    82    98   100    1
    83    38    37    2
    84   144   145    1
    85   144   147    1
    86    95    94    1
    87   145   146    2
    88    62    61    1
    89   148   147    1
    90    21    20    2
    91    27    28    1
    92   147   149    1
    93    51    52    1
    94    51    50    1
    95    28    29    1
    96    60    61    1
    97    60    59    1
    98   157   156    2
    99    24    23    1
   100    29    30    2
   101    49    48    1
   102    54    52   am
   103    54    55    1
   104    58    59    1
   105    58    55    1
   106    94    89   am
   107    52    53    2
   108    20    19    1
   109   156   155    1
   110    55    56    1
   111    22    23    1
   112    22    19    1
   113    93    91    1
   114   153   152    2
   115    48    45    1
   116    19    18    1
   117    89    90    2
   118    89    88    1
   119    47    46    2
   120    46    45    1
   121   155   154    1
   122   155   158    1
   123    56    57    2
   124    45    44    1
   125    88    91    1
   126    88    87    1
   127    91    92    1
   128   152   151    1
   129   151   150    1
   130    79    77    1
   131    83    82    2
   132    87    82   am
   133    66    65    2
   134    82    81    1
   135    63    64    1
   136    77    76    1
   137    65    64    1
   138    65    67   am
   139    76    78    1
   140    76    73    1
   141    85    84    1
   142    85    86    1
   143    81    84    1
   144    81    80    1
   145    80    86    1
   146    80    74   am
   147    71    68    1
   148    74    75    2
   149    74    73    1
   150    67    68    1
   151    68    69    1
   152    73    72    1
   153    69    70    2
