@<TRIPOS>MOLECULE
tmp/2f03F00.pdb
 172 168 0 0 0
SMALL
GASTEIGER

@<TRIPOS>ATOM
      1  N        -12.2460  -21.5130   20.2720 N.3   105  GLU105     -0.1245
      2  CA       -12.2980  -21.3660   18.8180 C.3   105  GLU105      0.1567
      3  C        -11.0820  -20.6000   18.2850 C.2   105  GLU105      0.2260
      4  O        -10.4140  -19.8840   19.0360 O.2   105  GLU105     -0.2867
      5  CB       -13.5830  -20.6270   18.4300 C.3   105  GLU105      0.0388
      6  CG       -14.8450  -21.3150   18.9440 C.3   105  GLU105      0.1160
      7  CD       -16.1170  -20.5490   18.6380 C.2   105  GLU105      0.3649
      8  OE1      -16.4170  -20.3320   17.4420 O.co2 105  GLU105     -0.2457
      9  OE2      -16.8200  -20.1660   19.6000 O.co2 105  GLU105     -0.2457
     10  N        -11.3210  -18.8190   15.1540 N.3   107  ASN107     -0.1225
     11  CA       -11.8480  -17.9850   14.0710 C.3   107  ASN107      0.1785
     12  C        -13.0020  -17.1320   14.5830 C.2   107  ASN107      0.2597
     13  O        -14.0460  -17.6590   14.9770 O.2   107  ASN107     -0.2718
     14  CB       -12.3460  -18.8740   12.9240 C.3   107  ASN107      0.1169
     15  CG       -13.5380  -19.7730   13.3300 C.2   107  ASN107      0.2627
     16  OD1      -13.4990  -20.4710   14.3510 O.2   107  ASN107     -0.2716
     17  ND2      -14.5940  -19.7600   12.5170 N.am  107  ASN107     -0.0877
     18  N        -12.8310  -15.8180   14.5820 N.am  108  ARG108     -0.1979
     19  CA       -13.8880  -14.9370   15.0660 C.3   108  ARG108      0.1597
     20  C        -14.0180  -14.9280   16.5860 C.2   108  ARG108      0.2287
     21  O        -13.5430  -15.8230   17.2760 O.2   108  ARG108     -0.2864
     22  CB       -15.2200  -15.3280   14.4480 C.3   108  ARG108      0.0334
     23  CG       -16.4160  -14.5350   14.9650 C.3   108  ARG108      0.0492
     24  CD       -17.0910  -15.2060   16.1590 C.3   108  ARG108      0.2205
     25  NE       -17.8980  -16.3610   15.7670 N.pl3 108  ARG108     -0.0865
     26  CZ       -17.5180  -17.6310   15.8870 C.cat 108  ARG108      0.5346
     27  NH1      -16.3260  -17.9360   16.3920 N.pl3 108  ARG108      0.1354
     28  NH2      -18.3470  -18.6020   15.5290 N.pl3 108  ARG108      0.1354
     29  N        -24.3950   -6.4700    8.5770 N.3   121  PHE121     -0.1227
     30  CA       -24.1480   -7.6440    7.7600 C.3   121  PHE121      0.1736
     31  C        -25.4820   -8.2650    7.3830 C.2   121  PHE121      0.2595
     32  O        -26.5400   -7.7120    7.6850 O.2   121  PHE121     -0.2718
     33  CB       -23.3080   -8.6530    8.5280 C.3   121  PHE121      0.0547
     34  CG       -23.9610   -9.1440    9.7760 C.ar  121  PHE121     -0.0202
     35  CD1      -24.5460  -10.4020    9.8200 C.ar  121  PHE121     -0.0042
     36  CD2      -23.9910   -8.3480   10.9140 C.ar  121  PHE121     -0.0042
     37  CE1      -25.1520  -10.8650   10.9850 C.ar  121  PHE121     -0.0003
     38  CE2      -24.5930   -8.7980   12.0800 C.ar  121  PHE121     -0.0003
     39  CZ       -25.1760  -10.0620   12.1170 C.ar  121  PHE121     -0.0000
     40  N        -25.4300   -9.4200    6.7330 N.am  122  ARG122     -0.1966
     41  CA       -26.6390  -10.0980    6.3080 C.3   122  ARG122      0.1729
     42  C        -26.6400  -11.5020    6.8810 C.2   122  ARG122      0.2616
     43  O        -25.7640  -12.3110    6.5670 O.2   122  ARG122     -0.2715
     44  CB       -26.6890  -10.1300    4.7790 C.3   122  ARG122      0.0348
     45  CG       -27.9220  -10.7910    4.1700 C.3   122  ARG122      0.0492
     46  CD       -27.8730  -10.6970    2.6320 C.3   122  ARG122      0.2205
     47  NE       -27.8250   -9.3080    2.1520 N.pl3 122  ARG122     -0.0865
     48  CZ       -28.8880   -8.5100    2.0250 C.cat 122  ARG122      0.5346
     49  NH1      -30.1090   -8.9470    2.3380 N.pl3 122  ARG122      0.1354
     50  NH2      -28.7300   -7.2660    1.5810 N.pl3 122  ARG122      0.1354
     51  N        -27.6280  -11.7700    7.7340 N.am  123  ASN123     -0.1958
     52  CA       -27.7950  -13.0650    8.3960 C.3   123  ASN123      0.1819
     53  C        -27.9880  -14.1950    7.3900 C.2   123  ASN123      0.2622
     54  O        -28.8610  -14.1220    6.5240 O.2   123  ASN123     -0.2715
     55  CB       -29.0020  -13.0170    9.3370 C.3   123  ASN123      0.1195
     56  CG       -29.0720  -14.2210   10.2620 C.2   123  ASN123      0.2630
     57  OD1      -28.9740  -15.3660    9.8190 O.2   123  ASN123     -0.2716
     58  ND2      -29.2500  -13.9670   11.5560 N.am  123  ASN123     -0.0877
     59  N        -27.1720  -15.2380    7.5160 N.am  124  THR124     -0.1937
     60  CA       -27.2430  -16.3910    6.6240 C.3   124  THR124      0.2028
     61  C        -28.6900  -16.8440    6.4370 C.2   124  THR124      0.2643
     62  O        -29.3600  -16.4500    5.4750 O.2   124  THR124     -0.2714
     63  CB       -26.4270  -17.5790    7.1830 C.3   124  THR124      0.1808
     64  OG1      -25.0700  -17.1750    7.3800 O.3   124  THR124     -0.2208
     65  CG2      -26.4590  -18.7580    6.2140 C.3   124  THR124      0.0379
     66  N        -29.1590  -17.6800    7.3600 N.am  125  SER125     -0.1935
     67  CA       -30.5220  -18.1930    7.3270 C.3   125  SER125      0.2055
     68  C        -31.5150  -17.0820    6.9730 C.2   125  SER125      0.2643
     69  O        -32.0240  -17.0190    5.8520 O.2   125  SER125     -0.2714
     70  CB       -30.8680  -18.8010    8.6890 C.3   125  SER125      0.2130
     71  OG       -30.5230  -17.9220    9.7470 O.3   125  SER125     -0.2179
     72  N        -31.7720  -16.2080    7.9400 N.am  126  SER126     -0.1949
     73  CA       -32.6820  -15.0790    7.7780 C.3   126  SER126      0.1924
     74  C        -32.6910  -14.4370    6.3800 C.2   126  SER126      0.2314
     75  O        -33.7440  -14.3010    5.7590 O.2   126  SER126     -0.2863
     76  CB       -32.3430  -14.0180    8.8320 C.3   126  SER126      0.2116
     77  OG       -32.9590  -12.7760    8.5470 O.3   126  SER126     -0.2180
     78  N        -20.1960  -10.8890   11.5370 N.3   201  GLY201     -0.1210
     79  CA       -21.0770  -12.0260   11.3810 C.3   201  GLY201      0.1956
     80  C        -22.2870  -11.9340   12.2840 C.2   201  GLY201      0.2612
     81  O        -22.5250  -10.8950   12.9090 O.2   201  GLY201     -0.2717
     82  N        -23.0410  -13.0310   12.3500 N.am  202  ALA202     -0.1965
     83  CA       -24.2460  -13.1280   13.1680 C.3   202  ALA202      0.1728
     84  C        -23.9330  -13.1800   14.6590 C.2   202  ALA202      0.2617
     85  O        -23.0120  -13.8800   15.0980 O.2   202  ALA202     -0.2715
     86  CB       -25.0450  -14.3620   12.7670 C.3   202  ALA202      0.0334
     87  N        -24.7150  -12.4340   15.4320 N.am  203  GLY203     -0.1940
     88  CA       -24.5230  -12.4060   16.8680 C.3   203  GLY203      0.2014
     89  C        -24.6010  -13.8080   17.4390 C.2   203  GLY203      0.2639
     90  O        -24.8260  -14.7820   16.7160 O.2   203  GLY203     -0.2714
     91  N        -24.3890  -13.9200   18.7410 N.am  204  LYS204     -0.1963
     92  CA       -24.4580  -15.2150   19.4010 C.3   204  LYS204      0.1728
     93  C        -25.3850  -14.9990   20.5990 C.2   204  LYS204      0.2616
     94  O        -24.9490  -14.5560   21.6820 O.2   204  LYS204     -0.2715
     95  CB       -23.0580  -15.6750   19.8610 C.3   204  LYS204      0.0311
     96  CG       -23.0400  -17.0900   20.4390 C.3   204  LYS204      0.0038
     97  CD       -22.2560  -17.1570   21.7430 C.3   204  LYS204      0.0206
     98  CE       -20.7500  -17.2580   21.5230 C.3   204  LYS204      0.1093
     99  NZ       -20.3490  -18.5780   20.9430 N.3   204  LYS204     -0.1314
    100  N        -26.6690  -15.2910   20.3820 N.am  205  HIS205     -0.1959
    101  CA       -27.7020  -15.1260   21.4050 C.3   205  HIS205      0.1787
    102  C        -29.0440  -15.0950   20.6830 C.2   205  HIS205      0.2621
    103  O        -29.0950  -14.9250   19.4600 O.2   205  HIS205     -0.2715
    104  CB       -27.4990  -13.8100   22.1730 C.3   205  HIS205      0.0785
    105  CG       -27.5290  -12.5950   21.2980 C.ar  205  HIS205      0.0821
    106  ND1      -27.4550  -12.6700   19.9210 N.ar  205  HIS205     -0.2267
    107  CD2      -27.6230  -11.2780   21.5990 C.ar  205  HIS205      0.1154
    108  CE1      -27.5040  -11.4530   19.4130 C.ar  205  HIS205      0.1986
    109  NE2      -27.6070  -10.5890   20.4090 N.ar  205  HIS205     -0.2212
    110  N        -30.1180  -15.2400   21.4550 N.am  206  SER206     -0.1936
    111  CA       -31.4880  -15.2590   20.9440 C.3   206  SER206      0.2040
    112  C        -31.8790  -14.4260   19.7010 C.2   206  SER206      0.2485
    113  O        -32.2010  -14.9970   18.6540 O.2   206  SER206     -0.2729
    114  CB       -32.4510  -14.9520   22.0970 C.3   206  SER206      0.2129
    115  OG       -31.9770  -13.8790   22.8920 O.3   206  SER206     -0.2179
    116  N        -31.8510  -13.0790   19.7900 N.am  207  PRO207     -0.2715
    117  CA       -32.2240  -12.2240   18.6470 C.3   207  PRO207      0.1536
    118  C        -31.4620  -12.3750   17.3200 C.2   207  PRO207      0.2598
    119  O        -30.2380  -12.5600   17.2950 O.2   207  PRO207     -0.2715
    120  CB       -32.0970  -10.8120   19.2190 C.3   207  PRO207      0.0310
    121  CG       -30.9560  -10.9560   20.1770 C.3   207  PRO207      0.0237
    122  CD       -31.3060  -12.2570   20.8870 C.3   207  PRO207      0.0939
    123  N        -32.2120  -12.2750   16.2220 N.am  208  ALA208     -0.1978
    124  CA       -31.6720  -12.3840   14.8650 C.3   208  ALA208      0.1597
    125  C        -32.6370  -11.7210   13.8570 C.2   208  ALA208      0.2287
    126  O        -33.8630  -11.8490   13.9750 O.2   208  ALA208     -0.2864
    127  CB       -31.4320  -13.8640   14.5090 C.3   208  ALA208      0.0319
    128  N        -25.4960   -8.1470   20.4190 N.3   214  ARG214     -0.1245
    129  CA       -24.1640   -8.6760   20.1640 C.3   214  ARG214      0.1563
    130  C        -23.8550   -8.7970   18.6810 C.2   214  ARG214      0.2260
    131  O        -24.7040   -8.5350   17.8280 O.2   214  ARG214     -0.2867
    132  CB       -24.0040  -10.0290   20.8430 C.3   214  ARG214      0.0307
    133  CG       -23.9970   -9.8900   22.3350 C.3   214  ARG214      0.0489
    134  CD       -22.5880   -9.7780   22.8280 C.3   214  ARG214      0.2205
    135  NE       -22.1690  -11.0710   23.3470 N.pl3 214  ARG214     -0.0865
    136  CZ       -22.5800  -11.5670   24.5080 C.cat 214  ARG214      0.5346
    137  NH1      -23.4100  -10.8660   25.2730 N.pl3 214  ARG214      0.1354
    138  NH2      -22.1840  -12.7730   24.8900 N.pl3 214  ARG214      0.1354
    139  N        -20.3540  -10.3530   15.7760 N.3   216  ARG216     -0.1245
    140  CA       -19.1190  -11.1010   15.6240 C.3   216  ARG216      0.1563
    141  C        -18.1940  -10.4690   14.6150 C.2   216  ARG216      0.2260
    142  O        -18.5570   -9.5240   13.9120 O.2   216  ARG216     -0.2867
    143  CB       -19.4040  -12.5420   15.2110 C.3   216  ARG216      0.0307
    144  CG       -19.3570  -13.5070   16.3660 C.3   216  ARG216      0.0489
    145  CD       -20.1510  -14.7560   16.0680 C.3   216  ARG216      0.2205
    146  NE       -20.0240  -15.7330   17.1420 N.pl3 216  ARG216     -0.0865
    147  CZ       -20.7040  -16.8750   17.1980 C.cat 216  ARG216      0.5346
    148  NH1      -21.5700  -17.1800   16.2390 N.pl3 216  ARG216      0.1354
    149  NH2      -20.5040  -17.7210   18.2050 N.pl3 216  ARG216      0.1354
    150  N        -15.1920  -12.0980   11.9640 N.3   218  TYR218     -0.1241
    151  CA       -14.5150  -13.2970   11.5150 C.3   218  TYR218      0.1605
    152  C        -13.1170  -12.9650   11.0060 C.2   218  TYR218      0.2264
    153  O        -12.9510  -12.1800   10.0760 O.2   218  TYR218     -0.2867
    154  CB       -15.3520  -14.0110   10.4560 C.3   218  TYR218      0.0534
    155  CG       -16.5300  -14.7560   11.0500 C.ar  218  TYR218     -0.0201
    156  CD1      -17.7130  -14.0920   11.3730 C.ar  218  TYR218     -0.0009
    157  CD2      -16.4380  -16.1160   11.3450 C.ar  218  TYR218     -0.0009
    158  CE1      -18.7760  -14.7640   11.9800 C.ar  218  TYR218      0.0417
    159  CE2      -17.4860  -16.7990   11.9500 C.ar  218  TYR218      0.0417
    160  CZ       -18.6530  -16.1200   12.2690 C.ar  218  TYR218      0.1957
    161  OH       -19.6830  -16.7920   12.8970 O.3   218  TYR218     -0.2866
    162  N        -12.4150  -13.1720    7.0990 N.3   221  ARG221     -0.1245
    163  CA       -12.9520  -12.0700    6.3100 C.3   221  ARG221      0.1563
    164  C        -12.1990  -10.7600    6.5050 C.2   221  ARG221      0.2260
    165  O        -12.2730   -9.8750    5.6520 O.2   221  ARG221     -0.2867
    166  CB       -14.4240  -11.8350    6.6500 C.3   221  ARG221      0.0307
    167  CG       -15.3340  -13.0020    6.3060 C.3   221  ARG221      0.0489
    168  CD       -16.7830  -12.5590    6.1990 C.3   221  ARG221      0.2205
    169  NE       -17.6980  -13.5330    6.7850 N.pl3 221  ARG221     -0.0865
    170  CZ       -18.9130  -13.2410    7.2350 C.cat 221  ARG221      0.5346
    171  NH1      -19.3620  -11.9960    7.1660 N.pl3 221  ARG221      0.1354
    172  NH2      -19.6750  -14.1930    7.7520 N.pl3 221  ARG221      0.1354
@<TRIPOS>BOND
     1    50    48    1
     2    48    47    2
     3    48    49    1
     4    47    46    1
     5    46    45    1
     6    45    44    1
     7    44    41    1
     8    62    61    2
     9   165   164    2
    10    75    74    2
    11    69    68    2
    12   168   167    1
    13   168   169    1
    14    65    63    1
    15   167   166    1
    16    41    40    1
    17    41    42    1
    18   163   164    1
    19   163   166    1
    20   163   162    1
    21    74    73    1
    22    61    60    1
    23    61    66   am
    24    54    53    2
    25    43    42    2
    26    60    63    1
    27    60    59    1
    28    40    31   am
    29   169   170    2
    30    42    51   am
    31    68    67    1
    32    68    72   am
    33   171   170    1
    34    63    64    1
    35   170   172    1
    36    67    66    1
    37    67    70    1
    38    31    32    2
    39    31    30    1
    40    53    59   am
    41    53    52    1
    42    51    52    1
    43    30    33    1
    44    30    29    1
    45    73    72    1
    46    73    76    1
    47    52    55    1
    48    33    34    1
    49    77    76    1
    50    70    71    1
    51    55    56    1
    52    34    35   ar
    53    34    36   ar
    54    57    56    2
    55    35    37   ar
    56   153   152    2
    57    56    58   am
    58   154   155    1
    59   154   151    1
    60    36    38   ar
    61    37    39   ar
    62   152   151    1
    63   155   157   ar
    64   155   156   ar
    65   157   159   ar
    66   156   158   ar
    67    79    78    1
    68    79    80    1
    69   151   150    1
    70   159   160   ar
    71   158   160   ar
    72    38    39   ar
    73   160   161    1
    74    80    82   am
    75    80    81    2
    76    82    83    1
    77    17    15   am
    78    86    83    1
    79    14    15    1
    80    14    11    1
    81    83    84    1
    82    15    16    2
    83   125   126    2
    84   125   124    1
    85   142   141    2
    86    11    12    1
    87    11    10    1
    88    22    23    1
    89    22    19    1
    90   127   124    1
    91    18    12   am
    92    18    19    1
    93    12    13    2
    94   141   140    1
    95    84    85    2
    96    84    87   am
    97   124   123    1
    98    23    24    1
    99    19    20    1
   100   143   140    1
   101   143   144    1
   102    87    88    1
   103    28    26    1
   104   140   139    1
   105    25    26    2
   106    25    24    1
   107    26    27    1
   108   145   144    1
   109   145   146    1
   110   123   118   am
   111   148   147    1
   112    20    21    2
   113    90    89    2
   114    88    89    1
   115   146   147    2
   116   147   149    1
   117   119   118    2
   118   118   117    1
   119    89    91   am
   120     8     7   ar
   121   131   130    2
   122     3     2    1
   123     3     4    2
   124     5     2    1
   125     5     6    1
   126     7     6    1
   127     7     9   ar
   128   117   120    1
   129   117   116    1
   130   113   112    2
   131   130   129    1
   132    91    92    1
   133     2     1    1
   134   120   121    1
   135    92    95    1
   136    92    93    1
   137   108   106   ar
   138   108   109   ar
   139   103   102    2
   140   112   116   am
   141   112   111    1
   142   116   122    1
   143    95    96    1
   144   106   105   ar
   145   129   128    1
   146   129   132    1
   147   121   122    1
   148   100    93   am
   149   100   101    1
   150   109   107   ar
   151    96    97    1
   152    93    94    2
   153   102   101    1
   154   102   110   am
   155   132   133    1
   156    99    98    1
   157   111   110    1
   158   111   114    1
   159   105   107   ar
   160   105   104    1
   161   101   104    1
   162    98    97    1
   163   114   115    1
   164   133   134    1
   165   134   135    1
   166   135   136    2
   167   136   138    1
   168   136   137    1
