@<TRIPOS>MOLECULE
tmp/2f06A00.pdb
 91 90 0 0 0
SMALL
GASTEIGER

@<TRIPOS>ATOM
      1  N         -6.4360   27.4600   29.9310 N.3    78  CYS78      -0.1221
      2  CA        -6.9960   27.6700   31.2690 C.3    78  CYS78       0.1794
      3  C         -8.3870   28.2640   31.1660 C.2    78  CYS78       0.2443
      4  O         -8.8280   28.5860   30.0920 O.2    78  CYS78      -0.2733
      5  CB        -6.0910   28.5740   32.1090 C.3    78  CYS78       0.0970
      6  SG        -5.7870   30.1600   31.3510 S.3    78  CYS78      -0.0800
      7  N         -9.1140   28.3330   32.2720 N.am   79  PRO79      -0.2718
      8  CA       -10.4130   29.0340   32.1610 C.3    79  PRO79       0.1535
      9  C        -10.3440   30.5090   31.7050 C.2    79  PRO79       0.2599
     10  O         -9.3650   31.2310   31.9810 O.2    79  PRO79      -0.2715
     11  CB       -11.0320   28.8350   33.5630 C.3    79  PRO79       0.0310
     12  CG       -10.4530   27.5040   33.9980 C.3    79  PRO79       0.0237
     13  CD        -8.9970   27.6200   33.5680 C.3    79  PRO79       0.0939
     14  N        -11.3780   30.9140   30.9590 N.am   80  ASN80      -0.1959
     15  CA       -11.4750   32.2860   30.5020 C.3    80  ASN80       0.1819
     16  C        -12.1970   33.0930   31.5530 C.2    80  ASN80       0.2621
     17  O        -13.2880   33.6150   31.3070 O.2    80  ASN80      -0.2715
     18  CB       -12.1690   32.4190   29.1250 C.3    80  ASN80       0.1195
     19  CG       -12.1430   33.8610   28.5960 C.2    80  ASN80       0.2630
     20  OD1      -11.2520   34.6200   28.9430 O.2    80  ASN80      -0.2716
     21  ND2      -13.1350   34.2400   27.7790 N.am   80  ASN80      -0.0877
     22  N        -11.5570   33.2080   32.7070 N.am   81  VAL81      -0.1964
     23  CA       -12.0830   34.0030   33.8250 C.3    81  VAL81       0.1712
     24  C        -10.9220   34.8020   34.4300 C.2    81  VAL81       0.2458
     25  O         -9.7750   34.4290   34.2130 O.2    81  VAL81      -0.2730
     26  CB       -12.9310   33.1700   34.8820 C.3    81  VAL81       0.0289
     27  CG1      -14.0260   32.3290   34.2030 C.3    81  VAL81       0.0023
     28  CG2      -12.0660   32.3000   35.8490 C.3    81  VAL81       0.0023
     29  N        -11.2090   35.9490   35.1000 N.am   82  PRO82      -0.2716
     30  CA       -10.1920   36.7450   35.7740 C.3    82  PRO82       0.1536
     31  C         -9.3380   35.9260   36.7430 C.2    82  PRO82       0.2599
     32  O         -9.8780   35.1100   37.5090 O.2    82  PRO82      -0.2715
     33  CB       -11.0440   37.7770   36.5180 C.3    82  PRO82       0.0310
     34  CG       -12.0990   38.0700   35.4810 C.3    82  PRO82       0.0237
     35  CD       -12.5100   36.6460   35.1880 C.3    82  PRO82       0.0939
     36  N         -8.0230   36.1380   36.6800 N.am   83  GLY83      -0.1941
     37  CA        -7.0990   35.5120   37.6360 C.3    83  GLY83       0.2014
     38  C         -6.6360   34.1080   37.2770 C.2    83  GLY83       0.2639
     39  O         -5.8550   33.4890   38.0160 O.2    83  GLY83      -0.2714
     40  N         -7.1260   33.6110   36.1420 N.am   84  ALA84      -0.1963
     41  CA        -6.9220   32.2440   35.7700 C.3    84  ALA84       0.1728
     42  C         -5.4800   32.1000   35.3240 C.2    84  ALA84       0.2616
     43  O         -4.7760   31.2190   35.8050 O.2    84  ALA84      -0.2715
     44  CB        -7.8730   31.8680   34.6790 C.3    84  ALA84       0.0334
     45  N         -5.0380   32.9910   34.4280 N.am   85  LEU85      -0.1963
     46  CA        -3.6410   33.0230   33.9880 C.3    85  LEU85       0.1728
     47  C         -2.6880   33.3390   35.1520 C.2    85  LEU85       0.2616
     48  O         -1.6150   32.7510   35.2360 O.2    85  LEU85      -0.2715
     49  CB        -3.4410   34.0370   32.8520 C.3    85  LEU85       0.0311
     50  CG        -2.0400   34.1170   32.2220 C.3    85  LEU85       0.0022
     51  CD1       -1.4750   32.7280   31.7460 C.3    85  LEU85       0.0001
     52  CD2       -2.0460   35.1320   31.0860 C.3    85  LEU85       0.0001
     53  N         -3.0970   34.2840   36.0080 N.am   86  ALA86      -0.1977
     54  CA        -2.4360   34.6620   37.2370 C.3    86  ALA86       0.1597
     55  C         -2.0280   33.4690   38.0870 C.2    86  ALA86       0.2287
     56  O         -0.9740   33.5090   38.7140 O.2    86  ALA86      -0.2864
     57  CB        -3.3700   35.5670   38.0960 C.3    86  ALA86       0.0319
     58  N         -1.4820   34.9800   23.7780 N.3   103  SER103     -0.1202
     59  CA        -2.6780   34.2530   24.0730 C.3   103  SER103      0.2020
     60  C         -3.9640   34.9910   23.7840 C.2   103  SER103      0.2619
     61  O         -3.9630   36.2210   23.7310 O.2   103  SER103     -0.2717
     62  CB        -2.6630   33.8740   25.5490 C.3   103  SER103      0.2103
     63  OG        -2.4580   35.0290   26.3190 O.3   103  SER103     -0.2182
     64  N         -5.0250   34.2290   23.4820 N.am  104  PHE104     -0.1961
     65  CA        -6.3620   34.7920   23.2020 C.3   104  PHE104      0.1771
     66  C         -7.3440   33.9560   24.0190 C.2   104  PHE104      0.2619
     67  O         -7.1370   32.7460   24.1970 O.2   104  PHE104     -0.2715
     68  CB        -6.7950   34.6990   21.7180 C.3   104  PHE104      0.0574
     69  CG        -6.6440   35.9830   20.9130 C.ar  104  PHE104     -0.0200
     70  CD1       -5.3840   36.4010   20.4380 C.ar  104  PHE104     -0.0042
     71  CD2       -7.7640   36.7590   20.6060 C.ar  104  PHE104     -0.0042
     72  CE1       -5.2440   37.5940   19.6840 C.ar  104  PHE104     -0.0003
     73  CE2       -7.6580   37.9380   19.8850 C.ar  104  PHE104     -0.0003
     74  CZ        -6.3780   38.3610   19.3960 C.ar  104  PHE104     -0.0000
     75  N         -8.4300   34.5800   24.4410 N.am  105  ALA105     -0.1977
     76  CA        -9.6000   33.8630   24.9120 C.3   105  ALA105      0.1597
     77  C        -10.3270   33.1830   23.7450 C.2   105  ALA105      0.2287
     78  O        -10.5840   33.7960   22.7240 O.2   105  ALA105     -0.2864
     79  CB       -10.5550   34.8200   25.6460 C.3   105  ALA105      0.0319
     80  N         -8.9510   29.7500   27.4240 N.3   110  ALA110     -0.1245
     81  CA        -8.0050   30.6400   26.8030 C.3   110  ALA110      0.1562
     82  C         -6.8230   29.7770   26.4620 C.2   110  ALA110      0.2260
     83  O         -6.4890   28.8830   27.2040 O.2   110  ALA110     -0.2867
     84  CB        -7.6140   31.7250   27.7720 C.3   110  ALA110      0.0290
     85  N         -2.8030   29.5700   25.5520 N.3   112  VAL112     -0.1245
     86  CA        -1.6170   30.3600   25.8360 C.3   112  VAL112      0.1561
     87  C         -0.4210   29.6240   25.2940 C.2   112  VAL112      0.2260
     88  O         -0.2510   28.4510   25.5810 O.2   112  VAL112     -0.2867
     89  CB        -1.3950   30.6140   27.3890 C.3   112  VAL112      0.0252
     90  CG1       -0.3210   31.7120   27.5920 C.3   112  VAL112      0.0019
     91  CG2       -2.7380   30.9840   28.0750 C.3   112  VAL112      0.0019
@<TRIPOS>BOND
     1    74    72   ar
     2    74    73   ar
     3    72    70   ar
     4    73    71   ar
     5    70    69   ar
     6    71    69   ar
     7    69    68    1
     8    68    65    1
     9    78    77    2
    10    65    64    1
    11    65    66    1
    12    64    60   am
    13    61    60    2
    14    77    76    1
    15    58    59    1
    16    60    59    1
    17    66    67    2
    18    66    75   am
    19    59    62    1
    20    75    76    1
    21    76    79    1
    22    87    88    2
    23    87    86    1
    24    62    63    1
    25    85    86    1
    26    86    89    1
    27    82    81    1
    28    82    83    2
    29    81    80    1
    30    81    84    1
    31    89    90    1
    32    89    91    1
    33    21    19   am
    34    19    20    2
    35    19    18    1
    36    18    15    1
    37     1     2    1
    38     4     3    2
    39    15    14    1
    40    15    16    1
    41    14     9   am
    42    52    50    1
    43     3     2    1
    44     3     7   am
    45     2     5    1
    46    17    16    2
    47     6     5    1
    48    16    22   am
    49     9    10    2
    50     9     8    1
    51    51    50    1
    52     8     7    1
    53     8    11    1
    54    50    49    1
    55     7    13    1
    56    22    23    1
    57    49    46    1
    58    11    12    1
    59    13    12    1
    60    23    24    1
    61    23    26    1
    62    46    45    1
    63    46    47    1
    64    27    26    1
    65    25    24    2
    66    45    42   am
    67    24    29   am
    68    44    41    1
    69    26    28    1
    70    29    35    1
    71    29    30    1
    72    47    48    2
    73    47    53   am
    74    35    34    1
    75    42    41    1
    76    42    43    2
    77    34    33    1
    78    41    40    1
    79    30    33    1
    80    30    31    1
    81    53    54    1
    82    40    38   am
    83    36    31   am
    84    36    37    1
    85    31    32    2
    86    54    55    1
    87    54    57    1
    88    38    37    1
    89    38    39    2
    90    55    56    2
