@<TRIPOS>MOLECULE
tmp/2f07A00.pdb
 117 113 0 0 0
SMALL
GASTEIGER

@<TRIPOS>ATOM
      1  N         39.6600   34.0180   18.6680 N.3   105  ILE105     -0.1245
      2  CA        39.5430   32.6330   19.1010 C.3   105  ILE105      0.1561
      3  C         40.8740   31.8940   18.8340 C.2   105  ILE105      0.2260
      4  O         41.3890   31.1910   19.7070 O.2   105  ILE105     -0.2867
      5  CB        38.3830   31.9510   18.3500 C.3   105  ILE105      0.0252
      6  CG1       37.0600   32.5730   18.8160 C.3   105  ILE105      0.0019
      7  CG2       38.4160   30.4310   18.5630 C.3   105  ILE105      0.0019
      8  CD1       35.8320   31.9960   18.1560 C.3   105  ILE105      0.0001
      9  N         43.6380   30.1410   21.5470 N.3   109  TYR109     -0.1241
     10  CA        44.1520   28.7760   21.4690 C.3   109  TYR109      0.1605
     11  C         45.6750   28.7790   21.5230 C.2   109  TYR109      0.2264
     12  O         46.2720   27.9750   22.2250 O.2   109  TYR109     -0.2867
     13  CB        43.7150   28.0840   20.1680 C.3   109  TYR109      0.0534
     14  CG        42.3620   27.4160   20.2290 C.ar  109  TYR109     -0.0201
     15  CD1       41.2860   27.9070   19.4830 C.ar  109  TYR109     -0.0009
     16  CD2       42.1590   26.2820   21.0110 C.ar  109  TYR109     -0.0009
     17  CE1       40.0470   27.2840   19.5140 C.ar  109  TYR109      0.0417
     18  CE2       40.9160   25.6430   21.0470 C.ar  109  TYR109      0.0417
     19  CZ        39.8650   26.1520   20.2930 C.ar  109  TYR109      0.1957
     20  OH        38.6390   25.5230   20.2850 O.3   109  TYR109     -0.2866
     21  N         45.5580   25.8870   29.3880 N.3   118  MET118     -0.1245
     22  CA        44.2920   25.6660   28.6990 C.3   118  MET118      0.1570
     23  C         43.1580   25.4080   29.6850 C.2   118  MET118      0.2261
     24  O         41.9900   25.5460   29.3340 O.2   118  MET118     -0.2867
     25  CB        44.4090   24.5110   27.6890 C.3   118  MET118      0.0387
     26  CG        45.3220   24.8400   26.4940 C.3   118  MET118      0.0595
     27  SD        45.2640   23.6870   25.0840 S.3   118  MET118     -0.1393
     28  CE        44.1880   24.5800   23.9710 C.3   118  MET118      0.0692
     29  N         40.7320   28.2610   30.5310 N.3   121  TRP121     -0.1227
     30  CA        39.5800   28.4580   29.6640 C.3   121  TRP121      0.1737
     31  C         38.3110   27.8070   30.2540 C.2   121  TRP121      0.2595
     32  O         37.2080   28.3350   30.0910 O.2   121  TRP121     -0.2718
     33  CB        39.8600   27.9130   28.2680 C.3   121  TRP121      0.0564
     34  CG        39.3970   28.8330   27.1820 C.ar  121  TRP121      0.0003
     35  CD1       38.4680   29.8370   27.2900 C.ar  121  TRP121      0.0946
     36  CD2       39.7880   28.7970   25.8040 C.ar  121  TRP121      0.0152
     37  NE1       38.2580   30.4240   26.0620 N.ar  121  TRP121     -0.2442
     38  CE2       39.0610   29.8100   25.1360 C.ar  121  TRP121      0.0810
     39  CE3       40.6940   28.0130   25.0700 C.ar  121  TRP121      0.0012
     40  CZ2       39.1970   30.0470   23.7590 C.ar  121  TRP121      0.0191
     41  CZ3       40.8280   28.2500   23.7010 C.ar  121  TRP121      0.0001
     42  CH2       40.0900   29.2650   23.0650 C.ar  121  TRP121      0.0015
     43  N         38.4660   26.6830   30.9520 N.am  122  GLU122     -0.1979
     44  CA        37.3110   26.0200   31.5700 C.3   122  GLU122      0.1602
     45  C         36.7850   26.8840   32.7060 C.2   122  GLU122      0.2287
     46  O         35.5730   27.0500   32.8540 O.2   122  GLU122     -0.2864
     47  CB        37.6790   24.6360   32.1220 C.3   122  GLU122      0.0415
     48  CG        38.0450   23.6090   31.0620 C.3   122  GLU122      0.1163
     49  CD        36.9410   23.3970   30.0410 C.2   122  GLU122      0.3649
     50  OE1       35.7600   23.3040   30.4290 O.co2 122  GLU122     -0.2457
     51  OE2       37.2550   23.3070   28.8440 O.co2 122  GLU122     -0.2457
     52  N         34.7980   29.6990   31.3800 N.3   125  TYR125     -0.1241
     53  CA        33.4630   29.3130   30.9220 C.3   125  TYR125      0.1605
     54  C         32.4420   28.9920   32.0210 C.2   125  TYR125      0.2264
     55  O         31.2530   28.8520   31.7340 O.2   125  TYR125     -0.2867
     56  CB        33.5640   28.1120   29.9740 C.3   125  TYR125      0.0534
     57  CG        33.6810   28.4900   28.5190 C.ar  125  TYR125     -0.0201
     58  CD1       32.7290   28.0620   27.5850 C.ar  125  TYR125     -0.0009
     59  CD2       34.7200   29.3040   28.0740 C.ar  125  TYR125     -0.0009
     60  CE1       32.8090   28.4420   26.2440 C.ar  125  TYR125      0.0417
     61  CE2       34.8110   29.6930   26.7400 C.ar  125  TYR125      0.0417
     62  CZ        33.8530   29.2640   25.8310 C.ar  125  TYR125      0.1957
     63  OH        33.9280   29.6990   24.5250 O.3   125  TYR125     -0.2866
     64  N         28.6040   27.9030   31.5200 N.3   129  TYR129     -0.1241
     65  CA        28.2020   26.5220   31.8050 C.3   129  TYR129      0.1605
     66  C         27.0860   26.5220   32.8480 C.2   129  TYR129      0.2264
     67  O         26.0670   25.8670   32.6830 O.2   129  TYR129     -0.2867
     68  CB        29.3740   25.7310   32.3760 C.3   129  TYR129      0.0534
     69  CG        30.4940   25.4180   31.4110 C.ar  129  TYR129     -0.0201
     70  CD1       31.8010   25.2480   31.8820 C.ar  129  TYR129     -0.0009
     71  CD2       30.2500   25.2160   30.0520 C.ar  129  TYR129     -0.0009
     72  CE1       32.8330   24.8820   31.0340 C.ar  129  TYR129      0.0417
     73  CE2       31.2800   24.8430   29.1870 C.ar  129  TYR129      0.0417
     74  CZ        32.5700   24.6780   29.6900 C.ar  129  TYR129      0.1957
     75  OH        33.6010   24.2890   28.8680 O.3   129  TYR129     -0.2866
     76  N         27.7690   23.0720   24.5820 N.3   159  ILE159     -0.1231
     77  CA        28.6100   24.1970   24.2250 C.3   159  ILE159      0.1692
     78  C         29.8350   23.7780   23.4060 C.2   159  ILE159      0.2592
     79  O         30.2090   24.4690   22.4510 O.2   159  ILE159     -0.2718
     80  CB        29.0120   24.9940   25.5110 C.3   159  ILE159      0.0266
     81  CG1       27.7780   25.7270   26.0470 C.3   159  ILE159      0.0019
     82  CG2       30.1250   26.0070   25.2060 C.3   159  ILE159      0.0020
     83  CD1       27.9480   26.3170   27.4390 C.3   159  ILE159      0.0001
     84  N         30.4480   22.6500   23.7560 N.am  160  ASN160     -0.1974
     85  CA        31.6110   22.1630   23.0090 C.3   160  ASN160      0.1688
     86  C         31.2340   21.8660   21.5720 C.2   160  ASN160      0.2292
     87  O         31.8890   22.3160   20.6400 O.2   160  ASN160     -0.2864
     88  CB        32.1570   20.8580   23.5850 C.3   160  ASN160      0.1181
     89  CG        32.7170   21.0170   24.9640 C.2   160  ASN160      0.2629
     90  OD1       33.2730   22.0630   25.3090 O.2   160  ASN160     -0.2716
     91  ND2       32.5900   19.9650   25.7690 N.am  160  ASN160     -0.0877
     92  N         30.4090   25.0340   19.4230 N.3   163  GLU163     -0.1231
     93  CA        31.6130   25.7990   19.1070 C.3   163  GLU163      0.1699
     94  C         32.5450   25.0220   18.1750 C.2   163  GLU163      0.2592
     95  O         33.1680   25.6050   17.2820 O.2   163  GLU163     -0.2718
     96  CB        32.3380   26.1990   20.3970 C.3   163  GLU163      0.0402
     97  CG        31.5690   27.2690   21.1520 C.3   163  GLU163      0.1161
     98  CD        32.2740   27.7620   22.3940 C.2   163  GLU163      0.3649
     99  OE1       31.8970   28.8440   22.8950 O.co2 163  GLU163     -0.2457
    100  OE2       33.1910   27.0690   22.8760 O.co2 163  GLU163     -0.2457
    101  N         32.6520   23.7110   18.3630 N.am  164  ASN164     -0.1974
    102  CA        33.5050   22.9440   17.4690 C.3   164  ASN164      0.1688
    103  C         32.9400   23.0010   16.0510 C.2   164  ASN164      0.2292
    104  O         33.6900   23.1420   15.0900 O.2   164  ASN164     -0.2864
    105  CB        33.5830   21.4940   17.9100 C.3   164  ASN164      0.1181
    106  CG        34.9060   21.1400   18.4990 C.2   164  ASN164      0.2629
    107  OD1       35.9510   21.6920   18.1470 O.2   164  ASN164     -0.2716
    108  ND2       34.8800   20.1860   19.3970 N.am  164  ASN164     -0.0877
    109  N         33.6360   26.4150   14.6430 N.3   167  GLU167     -0.1245
    110  CA        35.0630   26.5220   14.3550 C.3   167  GLU167      0.1567
    111  C         35.4410   25.7370   13.0950 C.2   167  GLU167      0.2260
    112  O         36.2340   26.2060   12.2830 O.2   167  GLU167     -0.2867
    113  CB        35.8740   26.0320   15.5560 C.3   167  GLU167      0.0388
    114  CG        35.8280   27.0090   16.7310 C.3   167  GLU167      0.1160
    115  CD        36.5510   26.4890   17.9610 C.2   167  GLU167      0.3649
    116  OE1       37.4690   25.6550   17.8220 O.co2 167  GLU167     -0.2457
    117  OE2       36.2130   26.9250   19.0760 O.co2 167  GLU167     -0.2457
@<TRIPOS>BOND
     1   112   111    2
     2   111   110    1
     3   110   109    1
     4   110   113    1
     5   104   103    2
     6   113   114    1
     7   103   102    1
     8   114   115    1
     9    95    94    2
    10   102   105    1
    11   102   101    1
    12   116   115   ar
    13   105   106    1
    14   115   117   ar
    15   107   106    2
    16     8     6    1
    17    94   101   am
    18    94    93    1
    19     5     7    1
    20     5     6    1
    21     5     2    1
    22   106   108   am
    23     1     2    1
    24     3     2    1
    25     3     4    2
    26    93    92    1
    27    93    96    1
    28    15    17   ar
    29    15    14   ar
    30    17    19   ar
    31    13    14    1
    32    13    10    1
    33    14    16   ar
    34    20    19    1
    35    19    18   ar
    36    96    97    1
    37    87    86    2
    38    16    18   ar
    39    97    98    1
    40    10    11    1
    41    10     9    1
    42    11    12    2
    43    86    85    1
    44    98   100   ar
    45    98    99   ar
    46    79    78    2
    47    85    88    1
    48    85    84    1
    49    42    41   ar
    50    42    40   ar
    51    78    84   am
    52    78    77    1
    53    88    89    1
    54    41    39   ar
    55    40    38   ar
    56    28    27    1
    57    77    76    1
    58    77    80    1
    59    63    62    1
    60    89    90    2
    61    89    91   am
    62    39    36   ar
    63    27    26    1
    64    38    36   ar
    65    38    37   ar
    66    82    80    1
    67    80    81    1
    68    36    34   ar
    69    62    60   ar
    70    62    61   ar
    71    81    83    1
    72    37    35   ar
    73    60    58   ar
    74    26    25    1
    75    61    59   ar
    76    34    35   ar
    77    34    33    1
    78    58    57   ar
    79    25    22    1
    80    59    57   ar
    81    33    30    1
    82    57    56    1
    83    22    21    1
    84    22    23    1
    85    51    49   ar
    86    75    74    1
    87    73    74   ar
    88    73    71   ar
    89    24    23    2
    90    30    31    1
    91    30    29    1
    92    74    72   ar
    93    56    53    1
    94    49    50   ar
    95    49    48    1
    96    71    69   ar
    97    32    31    2
    98    31    43   am
    99    53    52    1
   100    53    54    1
   101    43    44    1
   102    72    70   ar
   103    48    47    1
   104    69    70   ar
   105    69    68    1
   106    64    65    1
   107    44    47    1
   108    44    45    1
   109    55    54    2
   110    65    68    1
   111    65    66    1
   112    67    66    2
   113    45    46    2
