@<TRIPOS>MOLECULE
tmp/2f0yB01.pdb
 183 182 0 0 0
SMALL
GASTEIGER

@<TRIPOS>ATOM
      1  N         75.1080    8.0630   -0.1130 N.3    67  TYR67      -0.1241
      2  CA        75.5290    9.2890   -0.7650 C.3    67  TYR67       0.1605
      3  C         75.7240    9.1400   -2.2610 C.2    67  TYR67       0.2264
      4  O         76.4640    9.9000   -2.8670 O.2    67  TYR67      -0.2867
      5  CB        76.8130    9.8140   -0.1160 C.3    67  TYR67       0.0534
      6  CG        76.5560   10.4370    1.2330 C.ar   67  TYR67      -0.0201
      7  CD1       76.2010    9.6500    2.3240 C.ar   67  TYR67      -0.0009
      8  CD2       76.5560   11.8290    1.3940 C.ar   67  TYR67      -0.0009
      9  CE1       75.8370   10.2320    3.5420 C.ar   67  TYR67       0.0417
     10  CE2       76.1940   12.4240    2.6110 C.ar   67  TYR67       0.0417
     11  CZ        75.8300   11.6200    3.6800 C.ar   67  TYR67       0.1957
     12  OH        75.4290   12.1880    4.8730 O.3    67  TYR67      -0.2866
     13  N         73.5510    9.7390   -4.3420 N.3    69  CYS69      -0.1221
     14  CA        72.7570   10.8340   -4.8930 C.3    69  CYS69       0.1808
     15  C         73.5400   12.1420   -4.9700 C.2    69  CYS69       0.2601
     16  O         73.1820   13.0440   -5.7230 O.2    69  CYS69      -0.2717
     17  CB        71.4980   11.0460   -4.0460 C.3    69  CYS69       0.0970
     18  SG        71.7780   11.4860   -2.3130 S.3    69  CYS69      -0.0800
     19  N         74.6040   12.2340   -4.1810 N.am   70  LEU70      -0.1979
     20  CA        75.4460   13.4180   -4.1500 C.3    70  LEU70       0.1596
     21  C         76.7870   13.0910   -4.7690 C.2    70  LEU70       0.2287
     22  O         77.8040   13.6850   -4.4280 O.2    70  LEU70      -0.2864
     23  CB        75.6320   13.8940   -2.7130 C.3    70  LEU70       0.0297
     24  CG        74.3740   14.4660   -2.0750 C.3    70  LEU70       0.0022
     25  CD1       74.5970   14.6190   -0.6160 C.3    70  LEU70       0.0001
     26  CD2       74.0170   15.7820   -2.7100 C.3    70  LEU70       0.0001
     27  N         78.3870   15.9250   -6.5460 N.3    73  SER73      -0.1217
     28  CA        78.5620   17.0670   -5.6430 C.3    73  SER73       0.1889
     29  C         79.6290   16.7720   -4.5820 C.2    73  SER73       0.2288
     30  O         79.5120   17.2200   -3.4470 O.2    73  SER73      -0.2866
     31  CB        77.2550   17.3820   -4.9120 C.3    73  SER73       0.2089
     32  OG        76.1700   17.5510   -5.8010 O.3    73  SER73      -0.2183
     33  N         81.3450   19.5260   -2.7610 N.3    76  TRP76      -0.1227
     34  CA        80.4210   20.0670   -1.7690 C.3    76  TRP76       0.1737
     35  C         80.6300   19.3040   -0.4850 C.2    76  TRP76       0.2595
     36  O         80.7190   19.8820    0.5990 O.2    76  TRP76      -0.2718
     37  CB        78.9670   19.8860   -2.2010 C.3    76  TRP76       0.0564
     38  CG        78.4340   21.0090   -3.0180 C.ar   76  TRP76       0.0003
     39  CD1       78.1130   20.9810   -4.3380 C.ar   76  TRP76       0.0946
     40  CD2       78.2250   22.3460   -2.5800 C.ar   76  TRP76       0.0152
     41  NE1       77.7220   22.2190   -4.7530 N.ar   76  TRP76      -0.2442
     42  CE2       77.7830   23.0810   -3.6930 C.ar   76  TRP76       0.0810
     43  CE3       78.3710   22.9960   -1.3530 C.ar   76  TRP76       0.0012
     44  CZ2       77.4850   24.4430   -3.6200 C.ar   76  TRP76       0.0191
     45  CZ3       78.0710   24.3480   -1.2770 C.ar   76  TRP76       0.0001
     46  CH2       77.6340   25.0570   -2.4050 C.ar   76  TRP76       0.0015
     47  N         80.7030   17.9850   -0.6270 N.am   77  LEU77      -0.1980
     48  CA        80.9070   17.0840    0.4990 C.3    77  LEU77       0.1596
     49  C         82.1830   17.4400    1.2500 C.2    77  LEU77       0.2287
     50  O         82.2430   17.3330    2.4750 O.2    77  LEU77      -0.2864
     51  CB        80.9320   15.6420   -0.0040 C.3    77  LEU77       0.0297
     52  CG        79.5580   15.2040   -0.5250 C.3    77  LEU77       0.0022
     53  CD1       79.6770   14.0290   -1.4810 C.3    77  LEU77       0.0001
     54  CD2       78.6700   14.8730    0.6560 C.3    77  LEU77       0.0001
     55  N         81.4400   21.1240    2.9900 N.3    80  TRP80      -0.1241
     56  CA        80.5280   20.9900    4.1080 C.3    80  TRP80       0.1605
     57  C         81.2270   20.4060    5.3330 C.2    80  TRP80       0.2264
     58  O         81.0860   20.9140    6.4390 O.2    80  TRP80      -0.2867
     59  CB        79.3270   20.1220    3.7140 C.3    80  TRP80       0.0550
     60  CG        78.4110   20.7470    2.6760 C.ar   80  TRP80       0.0003
     61  CD1       78.1880   22.0750    2.4720 C.ar   80  TRP80       0.0946
     62  CD2       77.5600   20.0550    1.7490 C.ar   80  TRP80       0.0152
     63  NE1       77.2550   22.2540    1.4790 N.ar   80  TRP80      -0.2442
     64  CE2       76.8530   21.0330    1.0190 C.ar   80  TRP80       0.0810
     65  CE3       77.3260   18.7020    1.4670 C.ar   80  TRP80       0.0012
     66  CZ2       75.9300   20.7070    0.0290 C.ar   80  TRP80       0.0191
     67  CZ3       76.4040   18.3770    0.4760 C.ar   80  TRP80       0.0001
     68  CH2       75.7180   19.3760   -0.2290 C.ar   80  TRP80       0.0015
     69  N         78.4500   25.3490   -9.0860 N.3   125  ALA125     -0.1245
     70  CA        78.1860   24.9650   -7.7050 C.3   125  ALA125      0.1562
     71  C         79.3690   24.2200   -7.1100 C.2   125  ALA125      0.2260
     72  O         79.9000   24.6120   -6.0780 O.2   125  ALA125     -0.2867
     73  CB        76.9290   24.1220   -7.6210 C.3   125  ALA125      0.0290
     74  N         71.8150   31.7870   -7.8710 N.3   176  ARG176     -0.1245
     75  CA        72.8590   30.9660   -7.2510 C.3   176  ARG176      0.1563
     76  C         74.1660   31.0770   -8.0200 C.2   176  ARG176      0.2260
     77  O         75.2220   31.1840   -7.4190 O.2   176  ARG176     -0.2867
     78  CB        72.4570   29.4850   -7.1890 C.3   176  ARG176      0.0307
     79  CG        71.4320   29.1220   -6.1370 C.3   176  ARG176      0.0489
     80  CD        71.0520   27.6720   -6.2870 C.3   176  ARG176      0.2205
     81  NE        70.6100   27.3750   -7.6460 N.pl3 176  ARG176     -0.0865
     82  CZ        70.7980   26.2080   -8.2580 C.cat 176  ARG176      0.5346
     83  NH1       71.4240   25.2210   -7.6300 N.pl3 176  ARG176      0.1354
     84  NH2       70.3750   26.0250   -9.5030 N.pl3 176  ARG176      0.1354
     85  N         62.6420   33.1410   -1.6560 N.3   222  HIS222     -0.1241
     86  CA        63.1720   32.0110   -0.9000 C.3   222  HIS222      0.1621
     87  C         64.4190   32.4540   -0.1400 C.2   222  HIS222      0.2264
     88  O         65.1580   33.3150   -0.5980 O.2   222  HIS222     -0.2867
     89  CB        63.5090   30.8300   -1.8280 C.3   222  HIS222      0.0745
     90  CG        63.7160   29.5400   -1.0970 C.ar  222  HIS222      0.0817
     91  ND1       64.8260   29.2970   -0.3180 N.ar  222  HIS222     -0.2268
     92  CD2       62.9030   28.4700   -0.9330 C.ar  222  HIS222      0.1154
     93  CE1       64.6830   28.1390    0.3000 C.ar  222  HIS222      0.1986
     94  NE2       63.5240   27.6170   -0.0560 N.ar  222  HIS222     -0.2212
     95  N         63.5640   24.8080    9.2570 N.3   271  ASP271     -0.1239
     96  CA        64.6820   23.9500    8.8770 C.3   271  ASP271      0.1674
     97  C         65.9650   24.4720    9.5120 C.2   271  ASP271      0.2266
     98  O         66.2010   25.6880    9.5710 O.2   271  ASP271     -0.2867
     99  CB        64.8390   23.9510    7.3550 C.3   271  ASP271      0.1410
    100  CG        65.8510   22.9470    6.8640 C.2   271  ASP271      0.3668
    101  OD1       66.8300   22.6690    7.5730 O.co2 271  ASP271     -0.2456
    102  OD2       65.6710   22.4500    5.7470 O.co2 271  ASP271     -0.2456
    103  N         69.0040   24.1830    8.3760 N.3   273  CYS273     -0.1221
    104  CA        69.9770   24.7540    7.4700 C.3   273  CYS273      0.1808
    105  C         69.7170   26.2320    7.2270 C.2   273  CYS273      0.2601
    106  O         70.6300   26.9880    6.9060 O.2   273  CYS273     -0.2717
    107  CB        70.0190   23.9810    6.1440 C.3   273  CYS273      0.0970
    108  SG        68.6410   24.2250    5.0210 S.3   273  CYS273     -0.0800
    109  N         68.4740   26.6550    7.3980 N.am  274  TYR274     -0.1976
    110  CA        68.1550   28.0540    7.1780 C.3   274  TYR274      0.1639
    111  C         68.7450   28.8980    8.2870 C.2   274  TYR274      0.2290
    112  O         68.6850   30.1220    8.2560 O.2   274  TYR274     -0.2864
    113  CB        66.6410   28.2450    7.0860 C.3   274  TYR274      0.0560
    114  CG        66.0400   27.6030    5.8580 C.ar  274  TYR274     -0.0198
    115  CD1       64.9000   26.8280    5.9520 C.ar  274  TYR274     -0.0009
    116  CD2       66.6360   27.7380    4.6060 C.ar  274  TYR274     -0.0009
    117  CE1       64.3600   26.1910    4.8340 C.ar  274  TYR274      0.0417
    118  CE2       66.1020   27.1050    3.4780 C.ar  274  TYR274      0.0417
    119  CZ        64.9640   26.3340    3.6070 C.ar  274  TYR274      0.1957
    120  OH        64.4080   25.7060    2.5280 O.3   274  TYR274     -0.2866
    121  N         71.5780   30.3530    5.8070 N.3   277  TRP277     -0.1241
    122  CA        71.0050   30.9890    4.6300 C.3   277  TRP277      0.1605
    123  C         70.1290   32.2080    4.9190 C.2   277  TRP277      0.2264
    124  O         70.1310   33.1670    4.1390 O.2   277  TRP277     -0.2867
    125  CB        70.1790   29.9750    3.8520 C.3   277  TRP277      0.0550
    126  CG        70.9560   28.8100    3.3360 C.ar  277  TRP277      0.0003
    127  CD1       70.6850   27.4950    3.5520 C.ar  277  TRP277      0.0946
    128  CD2       72.0910   28.8500    2.4640 C.ar  277  TRP277      0.0152
    129  NE1       71.5740   26.7090    2.8690 N.ar  277  TRP277     -0.2442
    130  CE2       72.4510   27.5120    2.1910 C.ar  277  TRP277      0.0810
    131  CE3       72.8360   29.8840    1.8820 C.ar  277  TRP277      0.0012
    132  CZ2       73.5260   27.1760    1.3630 C.ar  277  TRP277      0.0191
    133  CZ3       73.9060   29.5510    1.0550 C.ar  277  TRP277      0.0001
    134  CH2       74.2400   28.2060    0.8050 C.ar  277  TRP277      0.0015
    135  N         67.8460   18.9230    9.9110 N.3   326  ASP326     -0.1239
    136  CA        66.7720   19.7900    9.4580 C.3   326  ASP326      0.1674
    137  C         65.8660   20.0860   10.6620 C.2   326  ASP326      0.2266
    138  O         65.8530   21.1860   11.2200 O.2   326  ASP326     -0.2867
    139  CB        66.0210   19.0200    8.3500 C.3   326  ASP326      0.1410
    140  CG        64.6930   19.6520    7.9430 C.2   326  ASP326      0.3668
    141  OD1       64.1780   20.5370    8.6520 O.co2 326  ASP326     -0.2456
    142  OD2       64.1420   19.2370    6.9020 O.co2 326  ASP326     -0.2456
    143  N         72.7180   14.6240    8.1070 N.3   333  ASP333     -0.1225
    144  CA        73.4610   14.7160    6.8570 C.3   333  ASP333      0.1805
    145  C         74.4750   15.8500    6.9840 C.2   333  ASP333      0.2598
    146  O         74.2720   16.7800    7.7490 O.2   333  ASP333     -0.2718
    147  CB        72.5280   14.9080    5.6490 C.3   333  ASP333      0.1424
    148  CG        71.8740   16.2660    5.6050 C.2   333  ASP333      0.3668
    149  OD1       72.5960   17.2770    5.5740 O.co2 333  ASP333     -0.2456
    150  OD2       70.6300   16.3240    5.5830 O.co2 333  ASP333     -0.2456
    151  N         75.5750   15.7650    6.2480 N.am  334  PHE334     -0.1962
    152  CA        76.6380   16.7620    6.3270 C.3   334  PHE334      0.1771
    153  C         76.3230   18.2100    5.9570 C.2   334  PHE334      0.2620
    154  O         76.9750   19.1260    6.4620 O.2   334  PHE334     -0.2715
    155  CB        77.8380   16.2730    5.5240 C.3   334  PHE334      0.0574
    156  CG        78.3710   14.9620    6.0040 C.ar  334  PHE334     -0.0200
    157  CD1       78.0290   13.7810    5.3610 C.ar  334  PHE334     -0.0042
    158  CD2       79.1740   14.9000    7.1450 C.ar  334  PHE334     -0.0042
    159  CE1       78.4740   12.5590    5.8460 C.ar  334  PHE334     -0.0003
    160  CE2       79.6200   13.6860    7.6340 C.ar  334  PHE334     -0.0003
    161  CZ        79.2690   12.5120    6.9830 C.ar  334  PHE334     -0.0000
    162  N         75.3440   18.4180    5.0760 N.am  335  TYR335     -0.1960
    163  CA        74.9380   19.7600    4.6600 C.3   335  TYR335      0.1771
    164  C         74.2200   20.4590    5.8110 C.2   335  TYR335      0.2619
    165  O         74.5110   21.6050    6.1220 O.2   335  TYR335     -0.2715
    166  CB        74.0340   19.6600    3.4300 C.3   335  TYR335      0.0574
    167  CG        73.0870   20.8260    3.1980 C.ar  335  TYR335     -0.0198
    168  CD1       73.4750   21.9500    2.4580 C.ar  335  TYR335     -0.0009
    169  CD2       71.7930   20.8000    3.7150 C.ar  335  TYR335     -0.0009
    170  CE1       72.5920   23.0050    2.2450 C.ar  335  TYR335      0.0417
    171  CE2       70.9150   21.8460    3.5070 C.ar  335  TYR335      0.0417
    172  CZ        71.3130   22.9410    2.7730 C.ar  335  TYR335      0.1957
    173  OH        70.4080   23.9430    2.5500 O.3   335  TYR335     -0.2866
    174  N         73.2860   19.7700    6.4550 N.am  336  HIS336     -0.1973
    175  CA        72.5770   20.3720    7.5780 C.3   336  HIS336      0.1656
    176  C         73.5080   20.5200    8.7580 C.2   336  HIS336      0.2291
    177  O         73.2550   21.3100    9.6610 O.2   336  HIS336     -0.2864
    178  CB        71.3630   19.5400    7.9860 C.3   336  HIS336      0.0771
    179  CG        70.1880   19.7220    7.0840 C.ar  336  HIS336      0.0820
    180  ND1       69.8320   18.7970    6.1290 N.ar  336  HIS336     -0.2267
    181  CD2       69.3360   20.7610    6.9390 C.ar  336  HIS336      0.1154
    182  CE1       68.8140   19.2620    5.4300 C.ar  336  HIS336      0.1986
    183  NE2       68.4950   20.4530    5.9010 N.ar  336  HIS336     -0.2212
@<TRIPOS>BOND
     1    84    82    1
     2    69    70    1
     3    82    81    2
     4    82    83    1
     5    76    77    2
     6    76    75    1
     7    74    75    1
     8    70    73    1
     9    70    71    1
    10    81    80    1
    11    75    78    1
    12    78    79    1
    13    71    72    2
    14    27    28    1
    15    80    79    1
    16    32    31    1
    17    16    15    2
    18    28    31    1
    19    28    29    1
    20    15    14    1
    21    15    19   am
    22    14    13    1
    23    14    17    1
    24    21    22    2
    25    21    20    1
    26    41    39   ar
    27    41    42   ar
    28    29    30    2
    29    39    38   ar
    30    19    20    1
    31    20    23    1
    32    17    18    1
    33    42    44   ar
    34    42    40   ar
    35    44    46   ar
    36    38    40   ar
    37    38    37    1
    38     4     3    2
    39    33    34    1
    40    23    24    1
    41    26    24    1
    42    40    43   ar
    43    46    45   ar
    44     3     2    1
    45    37    34    1
    46    24    25    1
    47    89    90    1
    48    89    86    1
    49    34    35    1
    50    85    86    1
    51    53    52    1
    52    43    45   ar
    53    90    92   ar
    54    90    91   ar
    55    92    94   ar
    56    86    87    1
    57     2     5    1
    58     2     1    1
    59    47    35   am
    60    47    48    1
    61    88    87    2
    62    52    51    1
    63    52    54    1
    64    35    36    2
    65    91    93   ar
    66    68    66   ar
    67    68    67   ar
    68     5     6    1
    69    94    93   ar
    70    51    48    1
    71    66    64   ar
    72    67    65   ar
    73    48    49    1
    74   134   133   ar
    75   134   132   ar
    76    64    63   ar
    77    64    62   ar
    78   133   131   ar
    79     6     8   ar
    80     6     7   ar
    81    49    50    2
    82   132   130   ar
    83     8    10   ar
    84    65    62   ar
    85    63    61   ar
    86    62    60   ar
    87   131   128   ar
    88   130   128   ar
    89   130   129   ar
    90   170   168   ar
    91   170   172   ar
    92     7     9   ar
    93   168   167   ar
    94   128   126   ar
    95    61    60   ar
    96   120   119    1
    97   173   172    1
    98    10    11   ar
    99    60    59    1
   100   172   171   ar
   101   129   127   ar
   102    55    56    1
   103   167   166    1
   104   167   169   ar
   105   126   127   ar
   106   126   125    1
   107   166   163    1
   108   118   119   ar
   109   118   116   ar
   110   171   169   ar
   111     9    11   ar
   112   119   117   ar
   113    11    12    1
   114    59    56    1
   115   125   122    1
   116    56    57    1
   117   124   123    2
   118   116   114   ar
   119   122   123    1
   120   122   121    1
   121   163   162    1
   122   163   164    1
   123   117   115   ar
   124   108   107    1
   125   162   153   am
   126    57    58    2
   127   157   159   ar
   128   157   156   ar
   129   182   183   ar
   130   182   180   ar
   131   155   156    1
   132   155   152    1
   133   149   148   ar
   134   150   148   ar
   135   148   147    1
   136   147   144    1
   137   102   100   ar
   138   164   165    2
   139   164   174   am
   140   159   161   ar
   141   114   115   ar
   142   114   113    1
   143   183   181   ar
   144   153   152    1
   145   153   154    2
   146   156   158   ar
   147   180   179   ar
   148   107   104    1
   149   151   152    1
   150   151   145   am
   151   174   175    1
   152   144   145    1
   153   144   143    1
   154   100    99    1
   155   100   101   ar
   156   142   140   ar
   157   106   105    2
   158   181   179   ar
   159   161   160   ar
   160   145   146    2
   161   179   178    1
   162   113   110    1
   163   158   160   ar
   164   110   109    1
   165   110   111    1
   166   105   109   am
   167   105   104    1
   168    99    96    1
   169   104   103    1
   170   175   178    1
   171   175   176    1
   172   140   139    1
   173   140   141   ar
   174   112   111    2
   175   139   136    1
   176   176   177    2
   177    96    95    1
   178    96    97    1
   179   136   135    1
   180   136   137    1
   181    97    98    2
   182   137   138    2
