@<TRIPOS>MOLECULE
tmp/2f0zA00.pdb
 188 176 0 0 0
SMALL
GASTEIGER

@<TRIPOS>ATOM
      1  N         29.2420   36.9420   28.0490 N.3    19  ARG19      -0.1231
      2  CA        29.2970   35.6160   27.4530 C.3    19  ARG19       0.1694
      3  C         28.3920   34.6210   28.1580 C.2    19  ARG19       0.2591
      4  O         27.8820   34.8860   29.2490 O.2    19  ARG19      -0.2718
      5  CB        30.7180   35.0590   27.4900 C.3    19  ARG19       0.0321
      6  CG        31.6140   35.4910   26.3510 C.3    19  ARG19       0.0489
      7  CD        32.6870   34.4400   26.1060 C.3    19  ARG19       0.2205
      8  NE        32.1190   33.2320   25.5130 N.pl3  19  ARG19      -0.0865
      9  CZ        32.7310   32.0550   25.4720 C.cat  19  ARG19       0.5346
     10  NH1       33.9410   31.9120   25.9930 N.pl3  19  ARG19       0.1354
     11  NH2       32.1240   31.0160   24.9190 N.pl3  19  ARG19       0.1354
     12  N         28.2150   33.4670   27.5160 N.am   20  ILE20      -0.1980
     13  CA        27.4100   32.3630   28.0460 C.3    20  ILE20       0.1595
     14  C         25.9510   32.7560   28.2670 C.2    20  ILE20       0.2287
     15  O         25.4880   32.8940   29.4040 O.2    20  ILE20      -0.2864
     16  CB        28.0160   31.8450   29.3740 C.3    20  ILE20       0.0276
     17  CG1       29.5480   31.9330   29.3100 C.3    20  ILE20       0.0022
     18  CG2       27.5860   30.4140   29.6240 C.3    20  ILE20       0.0022
     19  CD1       30.1590   31.2810   28.0760 C.3    20  ILE20       0.0001
     20  N         26.8620   35.9990   31.5280 N.3    37  GLU37      -0.1245
     21  CA        27.9990   36.2250   32.4170 C.3    37  GLU37       0.1567
     22  C         28.6110   37.5760   32.0920 C.2    37  GLU37       0.2260
     23  O         28.8740   37.8700   30.9330 O.2    37  GLU37      -0.2867
     24  CB        29.0620   35.1490   32.2240 C.3    37  GLU37       0.0388
     25  CG        28.8290   33.8780   32.9860 C.3    37  GLU37       0.1160
     26  CD        29.9620   32.9160   32.7810 C.2    37  GLU37       0.3649
     27  OE1       31.1240   33.3640   32.8690 O.co2  37  GLU37      -0.2457
     28  OE2       29.7050   31.7220   32.5320 O.co2  37  GLU37      -0.2457
     29  N         31.7570   40.3870   32.6980 N.3    39  ARG39      -0.1245
     30  CA        33.1350   40.5540   33.1620 C.3    39  ARG39       0.1563
     31  C         33.6650   41.9370   32.7950 C.2    39  ARG39       0.2260
     32  O         33.0250   42.9530   33.0790 O.2    39  ARG39      -0.2867
     33  CB        34.0490   39.4810   32.5580 C.3    39  ARG39       0.0307
     34  CG        33.5060   38.0620   32.6860 C.3    39  ARG39       0.0489
     35  CD        32.5080   37.7280   31.5590 C.3    39  ARG39       0.2205
     36  NE        33.1820   37.3220   30.3230 N.pl3  39  ARG39      -0.0865
     37  CZ        33.6900   36.1090   30.1070 C.cat  39  ARG39       0.5346
     38  NH1       34.2940   35.8390   28.9560 N.pl3  39  ARG39       0.1354
     39  NH2       33.5750   35.1580   31.0300 N.pl3  39  ARG39       0.1354
     40  N         29.3190   31.7340   37.2280 N.3    76  MET76      -0.1230
     41  CA        29.3630   31.3410   35.8230 C.3    76  MET76       0.1702
     42  C         28.2480   30.3650   35.4760 C.2    76  MET76       0.2592
     43  O         27.6280   29.7570   36.3550 O.2    76  MET76      -0.2718
     44  CB        30.6810   30.6480   35.4830 C.3    76  MET76       0.0401
     45  CG        31.9070   31.2000   36.1440 C.3    76  MET76       0.0596
     46  SD        33.2710   30.0900   35.8150 S.3    76  MET76      -0.1393
     47  CE        33.9330   30.8270   34.3270 C.3    76  MET76       0.0692
     48  N         28.0190   30.2210   34.1730 N.am   77  ASN77      -0.1974
     49  CA        27.0350   29.2980   33.6250 C.3    77  ASN77       0.1688
     50  C         25.6370   29.4110   34.1940 C.2    77  ASN77       0.2292
     51  O         25.2060   28.5520   34.9680 O.2    77  ASN77      -0.2864
     52  CB        27.5250   27.8560   33.7940 C.3    77  ASN77       0.1181
     53  CG        28.7420   27.5430   32.9390 C.2    77  ASN77       0.2629
     54  OD1       28.7510   26.5520   32.2200 O.2    77  ASN77      -0.2716
     55  ND2       29.7760   28.3790   33.0210 N.am   77  ASN77      -0.0877
     56  N         27.4600   28.1240   38.7230 N.3    94  ILE94      -0.1245
     57  CA        28.6640   27.5570   39.2820 C.3    94  ILE94       0.1561
     58  C         29.5280   28.6390   39.9090 C.2    94  ILE94       0.2260
     59  O         29.7700   29.6800   39.3080 O.2    94  ILE94      -0.2867
     60  CB        29.4290   26.8050   38.1710 C.3    94  ILE94       0.0252
     61  CG1       28.7070   25.4950   37.8770 C.3    94  ILE94       0.0019
     62  CG2       30.8630   26.5470   38.5670 C.3    94  ILE94       0.0019
     63  CD1       28.4880   24.6570   39.1160 C.3    94  ILE94       0.0001
     64  N         33.2280   29.5110   41.5640 N.3    96  ILE96      -0.1245
     65  CA        34.6220   29.0750   41.6550 C.3    96  ILE96       0.1561
     66  C         35.5130   30.0650   42.4110 C.2    96  ILE96       0.2260
     67  O         35.4580   31.2750   42.1760 O.2    96  ILE96      -0.2867
     68  CB        35.2060   28.8480   40.2450 C.3    96  ILE96       0.0252
     69  CG1       34.3140   27.8740   39.4830 C.3    96  ILE96       0.0019
     70  CG2       36.6210   28.2820   40.3340 C.3    96  ILE96       0.0019
     71  CD1       34.8670   27.4690   38.1470 C.3    96  ILE96       0.0001
     72  N         39.5710   26.5830   35.4940 N.3   102  GLU102     -0.1245
     73  CA        39.1970   25.2210   35.1260 C.3   102  GLU102      0.1567
     74  C         40.4350   24.3500   34.9330 C.2   102  GLU102      0.2260
     75  O         40.5160   23.2550   35.4760 O.2   102  GLU102     -0.2867
     76  CB        38.3680   25.2620   33.8450 C.3   102  GLU102      0.0388
     77  CG        37.8270   23.9340   33.3820 C.3   102  GLU102      0.1160
     78  CD        36.9430   24.0920   32.1630 C.2   102  GLU102      0.3649
     79  OE1       37.4340   24.6510   31.1590 O.co2 102  GLU102     -0.2457
     80  OE2       35.7630   23.6690   32.2080 O.co2 102  GLU102     -0.2457
     81  N         41.5090   21.1330   36.7080 N.3   106  LEU106     -0.1245
     82  CA        41.7020   19.9290   35.9130 C.3   106  LEU106      0.1561
     83  C         43.0940   19.3620   36.1180 C.2   106  LEU106      0.2260
     84  O         43.2610   18.1590   36.3210 O.2   106  LEU106     -0.2867
     85  CB        41.4850   20.2190   34.4310 C.3   106  LEU106      0.0270
     86  CG        40.0500   20.6120   34.0900 C.3   106  LEU106      0.0019
     87  CD1       39.9450   20.8870   32.6100 C.3   106  LEU106      0.0001
     88  CD2       39.0880   19.5070   34.5200 C.3   106  LEU106      0.0001
     89  N         33.2830   20.3410   37.6440 N.3   148  PHE148     -0.1227
     90  CA        32.0540   20.0410   36.9090 C.3   148  PHE148      0.1736
     91  C         31.3560   21.3610   36.5740 C.2   148  PHE148      0.2595
     92  O         31.8450   22.4290   36.9390 O.2   148  PHE148     -0.2718
     93  CB        31.1420   19.1890   37.7910 C.3   148  PHE148      0.0547
     94  CG        30.6920   19.9030   39.0160 C.ar  148  PHE148     -0.0202
     95  CD1       29.4910   20.5940   39.0270 C.ar  148  PHE148     -0.0042
     96  CD2       31.5270   19.9910   40.1190 C.ar  148  PHE148     -0.0042
     97  CE1       29.1270   21.3750   40.1190 C.ar  148  PHE148     -0.0003
     98  CE2       31.1730   20.7720   41.2180 C.ar  148  PHE148     -0.0003
     99  CZ        29.9670   21.4680   41.2130 C.ar  148  PHE148     -0.0000
    100  N         30.2150   21.2820   35.8910 N.am  149  ALA149     -0.1980
    101  CA        29.4460   22.4740   35.5310 C.3   149  ALA149      0.1597
    102  C         28.0000   22.1610   35.1480 C.2   149  ALA149      0.2287
    103  O         27.6620   21.0250   34.7950 O.2   149  ALA149     -0.2864
    104  CB        30.1270   23.2170   34.3820 C.3   149  ALA149      0.0319
    105  N         27.7700   18.3670   33.6180 N.3   170  TYR170     -0.1241
    106  CA        28.8000   17.4500   33.1780 C.3   170  TYR170      0.1605
    107  C         29.9300   17.5470   34.1890 C.2   170  TYR170      0.2264
    108  O         30.0170   18.5220   34.9480 O.2   170  TYR170     -0.2867
    109  CB        29.2800   17.7960   31.7590 C.3   170  TYR170      0.0534
    110  CG        30.1010   19.0540   31.6360 C.ar  170  TYR170     -0.0201
    111  CD1       31.4870   19.0260   31.7880 C.ar  170  TYR170     -0.0009
    112  CD2       29.4900   20.2850   31.4040 C.ar  170  TYR170     -0.0009
    113  CE1       32.2420   20.2010   31.7150 C.ar  170  TYR170      0.0417
    114  CE2       30.2310   21.4590   31.3330 C.ar  170  TYR170      0.0417
    115  CZ        31.6010   21.4140   31.4890 C.ar  170  TYR170      0.1957
    116  OH        32.3240   22.5840   31.4340 O.3   170  TYR170     -0.2866
    117  N         34.2730   16.2380   35.0790 N.3   172  TYR172     -0.1241
    118  CA        35.5310   15.5980   34.7160 C.3   172  TYR172      0.1605
    119  C         35.7860   14.6100   35.8370 C.2   172  TYR172      0.2264
    120  O         36.2500   14.9740   36.9160 O.2   172  TYR172     -0.2867
    121  CB        36.6550   16.6260   34.6530 C.3   172  TYR172      0.0534
    122  CG        36.5370   17.5560   33.4770 C.ar  172  TYR172     -0.0201
    123  CD1       37.0850   17.2160   32.2420 C.ar  172  TYR172     -0.0009
    124  CD2       35.8400   18.7600   33.5840 C.ar  172  TYR172     -0.0009
    125  CE1       36.9400   18.0550   31.1390 C.ar  172  TYR172      0.0417
    126  CE2       35.6860   19.6040   32.4860 C.ar  172  TYR172      0.0417
    127  CZ        36.2370   19.2440   31.2700 C.ar  172  TYR172      0.1957
    128  OH        36.0700   20.0550   30.1770 O.3   172  TYR172     -0.2866
    129  N         30.6650   17.1210   27.2890 N.3   204  LEU204     -0.1231
    130  CA        30.7560   18.3400   28.0870 C.3   204  LEU204      0.1693
    131  C         29.4070   19.0140   28.2990 C.2   204  LEU204      0.2591
    132  O         28.4300   18.3590   28.6320 O.2   204  LEU204     -0.2718
    133  CB        31.7340   19.3080   27.4150 C.3   204  LEU204      0.0284
    134  CG        33.1410   18.7350   27.1880 C.3   204  LEU204      0.0019
    135  CD1       33.9500   19.6720   26.3190 C.3   204  LEU204      0.0001
    136  CD2       33.8300   18.5200   28.5210 C.3   204  LEU204      0.0001
    137  N         29.3620   20.3260   28.1140 N.am  205  GLU205     -0.1979
    138  CA        28.1250   21.0820   28.2850 C.3   205  GLU205      0.1602
    139  C         27.0330   20.4170   27.4770 C.2   205  GLU205      0.2287
    140  O         27.2970   19.8740   26.4050 O.2   205  GLU205     -0.2864
    141  CB        28.3190   22.5170   27.7990 C.3   205  GLU205      0.0415
    142  CG        29.5060   23.1950   28.4310 C.3   205  GLU205      0.1163
    143  CD        29.9610   24.4060   27.6600 C.2   205  GLU205      0.3649
    144  OE1       30.1540   24.2810   26.4320 O.co2 205  GLU205     -0.2457
    145  OE2       30.1400   25.4770   28.2770 O.co2 205  GLU205     -0.2457
    146  N         28.1700   18.5500   23.8160 N.3   221  ARG221     -0.1245
    147  CA        29.3260   18.8200   22.9660 C.3   221  ARG221      0.1563
    148  C         30.3830   17.7780   23.2880 C.2   221  ARG221      0.2260
    149  O         30.4560   17.2740   24.4070 O.2   221  ARG221     -0.2867
    150  CB        29.8980   20.2270   23.2090 C.3   221  ARG221      0.0307
    151  CG        30.5050   20.4590   24.5750 C.3   221  ARG221      0.0489
    152  CD        31.0140   21.8990   24.7440 C.3   221  ARG221      0.2205
    153  NE        32.3920   22.1020   24.2840 N.pl3 221  ARG221     -0.0865
    154  CZ        33.1190   23.1990   24.5280 C.cat 221  ARG221      0.5346
    155  NH1       32.6080   24.2060   25.2290 N.pl3 221  ARG221      0.1354
    156  NH2       34.3630   23.2920   24.0760 N.pl3 221  ARG221      0.1354
    157  N         37.5440   21.8510   20.9270 N.3   254  GLN254     -0.1245
    158  CA        36.9450   20.8940   21.8470 C.3   254  GLN254      0.1566
    159  C         35.4480   21.0930   21.7210 C.2   254  GLN254      0.2260
    160  O         34.6900   20.7900   22.6390 O.2   254  GLN254     -0.2867
    161  CB        37.3990   21.1810   23.2910 C.3   254  GLN254      0.0367
    162  CG        38.1050   20.0230   24.0080 C.3   254  GLN254      0.0905
    163  CD        37.1430   18.9880   24.5780 C.2   254  GLN254      0.2608
    164  OE1       36.2940   18.4580   23.8670 O.2   254  GLN254     -0.2717
    165  NE2       37.2800   18.6950   25.8670 N.am  254  GLN254     -0.0878
    166  N         34.0190   28.5930   15.0580 N.3   283  ARG283     -0.1245
    167  CA        32.7350   28.9470   15.6560 C.3   283  ARG283      0.1563
    168  C         32.0830   30.0730   14.8430 C.2   283  ARG283      0.2260
    169  O         32.2250   31.2560   15.1540 O.2   283  ARG283     -0.2867
    170  CB        32.9320   29.3850   17.1130 C.3   283  ARG283      0.0307
    171  CG        33.3980   28.2710   18.0270 C.3   283  ARG283      0.0489
    172  CD        33.4960   28.7200   19.4770 C.3   283  ARG283      0.2205
    173  NE        33.7630   27.5950   20.3730 N.pl3 283  ARG283     -0.0865
    174  CZ        33.8290   27.6740   21.7030 C.cat 283  ARG283      0.5346
    175  NH1       34.0720   26.5820   22.4170 N.pl3 283  ARG283      0.1354
    176  NH2       33.6580   28.8370   22.3240 N.pl3 283  ARG283      0.1354
    177  N         28.2890   30.3070   21.5350 N.3   313  TYR313     -0.1241
    178  CA        27.2150   29.8100   22.3920 C.3   313  TYR313      0.1605
    179  C         25.8220   30.3200   22.0110 C.2   313  TYR313      0.2264
    180  O         25.6710   31.3820   21.4010 O.2   313  TYR313     -0.2867
    181  CB        27.5170   30.1730   23.8530 C.3   313  TYR313      0.0534
    182  CG        28.5580   29.2830   24.4860 C.ar  313  TYR313     -0.0201
    183  CD1       29.6460   28.8160   23.7470 C.ar  313  TYR313     -0.0009
    184  CD2       28.4250   28.8570   25.8030 C.ar  313  TYR313     -0.0009
    185  CE1       30.5610   27.9380   24.2990 C.ar  313  TYR313      0.0417
    186  CE2       29.3420   27.9770   26.3670 C.ar  313  TYR313      0.0417
    187  CZ        30.4010   27.5190   25.6080 C.ar  313  TYR313      0.1957
    188  OH        31.2760   26.6070   26.1480 O.3   313  TYR313     -0.2866
@<TRIPOS>BOND
     1   168   169    2
     2   168   167    1
     3   166   167    1
     4   167   170    1
     5   170   171    1
     6   171   172    1
     7   172   173    1
     8   173   174    2
     9   157   158    1
    10   180   179    2
    11   177   178    1
    12   174   176    1
    13   174   175    1
    14   159   158    1
    15   159   160    2
    16   158   161    1
    17   179   178    1
    18   178   181    1
    19   147   150    1
    20   147   148    1
    21   147   146    1
    22   150   151    1
    23   148   149    2
    24   161   162    1
    25   183   185   ar
    26   183   182   ar
    27   181   182    1
    28   164   163    2
    29   162   163    1
    30   156   154    1
    31   153   154    2
    32   153   152    1
    33   185   187   ar
    34   182   184   ar
    35   154   155    1
    36   151   152    1
    37   163   165   am
    38    11     9    1
    39     9     8    2
    40     9    10    1
    41     8     7    1
    42   187   188    1
    43   187   186   ar
    44   184   186   ar
    45     7     6    1
    46   135   134    1
    47     6     5    1
    48   140   139    2
    49   144   143   ar
    50   134   133    1
    51   134   136    1
    52   129   130    1
    53   133   130    1
    54     2     5    1
    55     2     1    1
    56     2     3    1
    57   139   138    1
    58    12    13    1
    59    12     3   am
    60   143   145   ar
    61   143   142    1
    62   141   138    1
    63   141   142    1
    64    13    14    1
    65    13    16    1
    66    19    17    1
    67   130   131    1
    68   137   138    1
    69   137   131   am
    70     3     4    2
    71    14    15    2
    72   131   132    2
    73    38    37    1
    74    17    16    1
    75    16    18    1
    76    37    36    2
    77    37    39    1
    78   128   127    1
    79    36    35    1
    80    23    22    2
    81   125   127   ar
    82   125   123   ar
    83    79    78   ar
    84   127   126   ar
    85   114   112   ar
    86   114   115   ar
    87   112   110   ar
    88   116   115    1
    89   115   113   ar
    90    20    21    1
    91    35    34    1
    92   110   109    1
    93   110   111   ar
    94   113   111   ar
    95   109   106    1
    96    22    21    1
    97    78    80   ar
    98    78    77    1
    99    54    53    2
   100    24    21    1
   101    24    25    1
   102   123   122   ar
   103   126   124   ar
   104    28    26   ar
   105    33    34    1
   106    33    30    1
   107    87    86    1
   108    29    30    1
   109    26    27   ar
   110    26    25    1
   111    31    32    2
   112    31    30    1
   113    53    55   am
   114    53    52    1
   115   106   105    1
   116   106   107    1
   117    77    76    1
   118   122   124   ar
   119   122   121    1
   120    49    52    1
   121    49    48    1
   122    49    50    1
   123    76    73    1
   124    86    85    1
   125    86    88    1
   126    48    42   am
   127   107   108    2
   128    50    51    2
   129    47    46    1
   130   104   101    1
   131    85    82    1
   132   121   118    1
   133   118   117    1
   134   118   119    1
   135   103   102    2
   136    74    73    1
   137    74    75    2
   138    73    72    1
   139   102   101    1
   140    42    41    1
   141    42    43    2
   142    44    41    1
   143    44    45    1
   144   101   100    1
   145    46    45    1
   146    41    40    1
   147   119   120    2
   148   100    91   am
   149    82    83    1
   150    82    81    1
   151    83    84    2
   152    91    90    1
   153    91    92    2
   154    90    89    1
   155    90    93    1
   156    93    94    1
   157    61    60    1
   158    61    63    1
   159    71    69    1
   160    60    62    1
   161    60    57    1
   162    56    57    1
   163    94    95   ar
   164    94    96   ar
   165    95    97   ar
   166    57    58    1
   167    59    58    2
   168    69    68    1
   169    96    98   ar
   170    97    99   ar
   171    68    70    1
   172    68    65    1
   173    99    98   ar
   174    64    65    1
   175    65    66    1
   176    67    66    2
