@<TRIPOS>MOLECULE
tmp/2f10A00.pdb
 183 172 0 0 0
SMALL
GASTEIGER

@<TRIPOS>ATOM
      1  N         16.1240    6.5250   26.7080 N.3    19  ARG19      -0.1231
      2  CA        15.9960    7.8140   26.0270 C.3    19  ARG19       0.1694
      3  C         16.7340    8.9060   26.7710 C.2    19  ARG19       0.2591
      4  O         17.3270    8.6750   27.8360 O.2    19  ARG19      -0.2718
      5  CB        14.5370    8.2470   25.9170 C.3    19  ARG19       0.0321
      6  CG        13.7130    7.5130   24.9060 C.3    19  ARG19       0.0489
      7  CD        12.4870    8.3430   24.6390 C.3    19  ARG19       0.2205
      8  NE        12.8720    9.6690   24.1770 N.pl3  19  ARG19      -0.0865
      9  CZ        12.0530   10.7120   24.1080 C.cat  19  ARG19       0.5346
     10  NH1       10.7760   10.5890   24.4780 N.pl3  19  ARG19       0.1354
     11  NH2       12.5210   11.8800   23.6720 N.pl3  19  ARG19       0.1354
     12  N         16.6810   10.1050   26.2010 N.am   20  ILE20      -0.1980
     13  CA        17.2980   11.2680   26.8150 C.3    20  ILE20       0.1595
     14  C         18.7890   11.0090   27.0700 C.2    20  ILE20       0.2287
     15  O         19.2150   10.8070   28.2080 O.2    20  ILE20      -0.2864
     16  CB        16.5730   11.5910   28.1570 C.3    20  ILE20       0.0276
     17  CG1       15.0980   11.1680   28.0670 C.3    20  ILE20       0.0022
     18  CG2       16.6890   13.0780   28.4830 C.3    20  ILE20       0.0022
     19  CD1       14.3590   11.7680   26.8950 C.3    20  ILE20       0.0001
     20  N         18.4890    7.5440   30.1900 N.3    37  GLU37      -0.1245
     21  CA        17.4030    7.1580   31.0850 C.3    37  GLU37       0.1567
     22  C         17.0410    5.7000   30.8180 C.2    37  GLU37       0.2260
     23  O         16.7320    5.3430   29.6790 O.2    37  GLU37      -0.2867
     24  CB        16.1510    7.9890   30.8030 C.3    37  GLU37       0.0388
     25  CG        16.0590    9.3330   31.4780 C.3    37  GLU37       0.1160
     26  CD        14.7050    9.9860   31.2270 C.2    37  GLU37       0.3649
     27  OE1       13.6780    9.2820   31.3360 O.co2  37  GLU37      -0.2457
     28  OE2       14.6590   11.1950   30.9250 O.co2  37  GLU37      -0.2457
     29  N         14.3250    3.3420   31.0430 N.3    39  ARG39      -0.1245
     30  CA        12.8950    3.2650   31.3220 C.3    39  ARG39       0.1563
     31  C         12.3180    1.8570   31.3010 C.2    39  ARG39       0.2260
     32  O         12.5090    1.0920   30.3460 O.2    39  ARG39      -0.2867
     33  CB        12.1080    4.1620   30.3560 C.3    39  ARG39       0.0307
     34  CG        12.2260    5.6460   30.6740 C.3    39  ARG39       0.0489
     35  CD        13.2030    6.3550   29.7630 C.3    39  ARG39       0.2205
     36  NE        12.5020    6.9730   28.6430 N.pl3  39  ARG39      -0.0865
     37  CZ        11.8140    8.1090   28.7230 C.cat  39  ARG39       0.5346
     38  NH1       11.1950    8.5980   27.6480 N.pl3  39  ARG39       0.1354
     39  NH2       11.7590    8.7670   29.8750 N.pl3  39  ARG39       0.1354
     40  N         10.4070    7.0760   32.5990 N.3    41  ALA41      -0.1245
     41  CA        11.5030    7.6690   33.3590 C.3    41  ALA41       0.1562
     42  C         11.7190    6.9200   34.6740 C.2    41  ALA41       0.2260
     43  O         10.9760    7.1240   35.6290 O.2    41  ALA41      -0.2867
     44  CB        11.2000    9.1340   33.6340 C.3    41  ALA41       0.0290
     45  N         15.6170   11.5330   35.7900 N.3    77  MET77      -0.1230
     46  CA        15.5520   11.9120   34.3820 C.3    77  MET77       0.1702
     47  C         16.3710   13.1620   34.0640 C.2    77  MET77       0.2592
     48  O         16.8110   13.8860   34.9630 O.2    77  MET77      -0.2718
     49  CB        14.0940   12.1000   33.9430 C.3    77  MET77       0.0401
     50  CG        13.2500   12.9190   34.9000 C.3    77  MET77       0.0596
     51  SD        11.4740   12.7410   34.5810 S.3    77  MET77      -0.1393
     52  CE        11.0970   11.4280   35.7150 C.3    77  MET77       0.0692
     53  N         16.5790   13.3870   32.7700 N.am   78  ASN78      -0.1974
     54  CA        17.3410   14.5170   32.2630 C.3    78  ASN78       0.1688
     55  C         18.7790   14.5660   32.7800 C.2    78  ASN78       0.2292
     56  O         19.2210   15.5800   33.3160 O.2    78  ASN78      -0.2864
     57  CB        16.6120   15.8340   32.5730 C.3    78  ASN78       0.1181
     58  CG        15.4450   16.1000   31.6240 C.2    78  ASN78       0.2629
     59  OD1       14.9820   17.2320   31.5000 O.2    78  ASN78      -0.2716
     60  ND2       14.9650   15.0580   30.9550 N.am   78  ASN78      -0.0877
     61  N         16.9230   15.2900   37.7100 N.3    95  ILE95      -0.1245
     62  CA        15.6380   15.6580   38.2930 C.3    95  ILE95       0.1561
     63  C         14.9500   14.4470   38.9260 C.2    95  ILE95       0.2260
     64  O         15.0140   13.3380   38.3950 O.2    95  ILE95      -0.2867
     65  CB        14.7120   16.2540   37.2110 C.3    95  ILE95       0.0252
     66  CG1       15.2350   17.6190   36.7750 C.3    95  ILE95       0.0019
     67  CG2       13.3150   16.3980   37.7420 C.3    95  ILE95       0.0019
     68  CD1       15.2430   18.6480   37.8870 C.3    95  ILE95       0.0001
     69  N         11.2540   13.1790   40.3390 N.3    97  ILE97      -0.1245
     70  CA         9.8250   13.3740   40.4700 C.3    97  ILE97       0.1561
     71  C          9.2880   12.1540   41.1740 C.2    97  ILE97       0.2260
     72  O          9.7030   11.0380   40.8760 O.2    97  ILE97      -0.2867
     73  CB         9.1660   13.4560   39.1080 C.3    97  ILE97       0.0252
     74  CG1        9.6030   14.7410   38.4070 C.3    97  ILE97       0.0019
     75  CG2        7.6660   13.3640   39.2560 C.3    97  ILE97       0.0019
     76  CD1        9.4310   14.7040   36.8820 C.3    97  ILE97       0.0001
     77  N          6.6740   23.0260   37.6340 N.3   138  THR138     -0.1203
     78  CA         7.8040   22.1180   37.4090 C.3   138  THR138      0.1994
     79  C          8.9340   22.7780   36.6020 C.2   138  THR138      0.2618
     80  O          8.7560   23.8340   35.9830 O.2   138  THR138     -0.2717
     81  CB         7.3710   20.8270   36.6660 C.3   138  THR138      0.1784
     82  OG1        8.5170   19.9960   36.4500 O.3   138  THR138     -0.2211
     83  CG2        6.7480   21.1610   35.3220 C.3   138  THR138      0.0376
     84  N         10.0950   22.1380   36.6030 N.am  139  PHE139     -0.1961
     85  CA        11.2550   22.6550   35.8950 C.3   139  PHE139      0.1771
     86  C         12.0980   21.4520   35.5090 C.2   139  PHE139      0.2619
     87  O         11.6960   20.3130   35.7310 O.2   139  PHE139     -0.2715
     88  CB        12.0500   23.5810   36.8240 C.3   139  PHE139      0.0574
     89  CG        12.5590   22.8960   38.0690 C.ar  139  PHE139     -0.0200
     90  CD1       13.9100   22.5810   38.2070 C.ar  139  PHE139     -0.0042
     91  CD2       11.6790   22.5020   39.0720 C.ar  139  PHE139     -0.0042
     92  CE1       14.3760   21.8750   39.3250 C.ar  139  PHE139     -0.0003
     93  CE2       12.1320   21.7970   40.1930 C.ar  139  PHE139     -0.0003
     94  CZ        13.4820   21.4810   40.3180 C.ar  139  PHE139     -0.0000
     95  N         13.2570   21.6970   34.9180 N.am  140  ALA140     -0.1977
     96  CA        14.1490   20.6080   34.5400 C.3   140  ALA140      0.1597
     97  C         15.5010   21.1470   34.0710 C.2   140  ALA140      0.2287
     98  O         15.6510   22.3340   33.7810 O.2   140  ALA140     -0.2864
     99  CB        13.5080   19.7400   33.4550 C.3   140  ALA140      0.0319
    100  N         14.9660   25.1380   32.5520 N.3   161  TYR161     -0.1241
    101  CA        13.7660   25.8800   32.2330 C.3   161  TYR161      0.1605
    102  C         12.7390   25.6260   33.3150 C.2   161  TYR161      0.2264
    103  O         12.7340   24.5630   33.9410 O.2   161  TYR161     -0.2867
    104  CB        13.2190   25.4260   30.8910 C.3   161  TYR161      0.0534
    105  CG        12.7580   23.9950   30.8660 C.ar  161  TYR161     -0.0201
    106  CD1       11.4740   23.6480   31.2630 C.ar  161  TYR161     -0.0009
    107  CD2       13.6040   22.9900   30.4330 C.ar  161  TYR161     -0.0009
    108  CE1       11.0470   22.3340   31.2230 C.ar  161  TYR161      0.0417
    109  CE2       13.1930   21.6740   30.3890 C.ar  161  TYR161      0.0417
    110  CZ        11.9150   21.3450   30.7840 C.ar  161  TYR161      0.1957
    111  OH        11.5170   20.0200   30.7420 O.3   161  TYR161     -0.2866
    112  N          8.4890   25.9730   34.4620 N.3   163  TYR163     -0.1241
    113  CA         7.1220   26.1000   33.9800 C.3   163  TYR163      0.1605
    114  C          6.3960   27.0960   34.8540 C.2   163  TYR163      0.2264
    115  O          5.7700   26.7270   35.8400 O.2   163  TYR163     -0.2867
    116  CB         6.4140   24.7480   34.0070 C.3   163  TYR163      0.0534
    117  CG         6.4040   24.0960   32.6470 C.ar  163  TYR163     -0.0201
    118  CD1        5.6160   24.6150   31.6160 C.ar  163  TYR163     -0.0009
    119  CD2        7.2130   22.9960   32.3710 C.ar  163  TYR163     -0.0009
    120  CE1        5.6370   24.0610   30.3530 C.ar  163  TYR163      0.0417
    121  CE2        7.2370   22.4300   31.1050 C.ar  163  TYR163      0.0417
    122  CZ         6.4480   22.9670   30.1050 C.ar  163  TYR163      0.1957
    123  OH         6.4520   22.4040   28.8520 O.3   163  TYR163     -0.2866
    124  N         12.0420   26.0860   26.1220 N.3   198  LEU198     -0.1231
    125  CA        12.1350   24.8550   26.9030 C.3   198  LEU198      0.1693
    126  C         13.5570   24.3040   27.1190 C.2   198  LEU198      0.2591
    127  O         14.4460   25.0190   27.5810 O.2   198  LEU198     -0.2718
    128  CB        11.2550   23.7810   26.2460 C.3   198  LEU198      0.0284
    129  CG         9.8420   24.2020   25.8300 C.3   198  LEU198      0.0019
    130  CD1        9.2210   23.1190   24.9840 C.3   198  LEU198      0.0001
    131  CD2        9.0060   24.4550   27.0420 C.3   198  LEU198      0.0001
    132  N         13.7470   23.0210   26.7990 N.am  199  GLU199     -0.1979
    133  CA        15.0350   22.3440   26.9520 C.3   199  GLU199      0.1602
    134  C         16.0850   23.1130   26.1810 C.2   199  GLU199      0.2287
    135  O         15.8700   23.4810   25.0250 O.2   199  GLU199     -0.2864
    136  CB        14.9520   20.9130   26.4180 C.3   199  GLU199      0.0415
    137  CG        13.8910   20.0640   27.0880 C.3   199  GLU199      0.1163
    138  CD        13.5490   18.8100   26.2960 C.2   199  GLU199      0.3649
    139  OE1       13.4410   18.9050   25.0540 O.co2 199  GLU199     -0.2457
    140  OE2       13.3680   17.7370   26.9160 O.co2 199  GLU199     -0.2457
    141  N         14.6670   24.7930   22.8370 N.3   215  ARG215     -0.1245
    142  CA        13.5730   24.1460   22.1270 C.3   215  ARG215      0.1563
    143  C         12.3810   25.1040   22.1910 C.2   215  ARG215      0.2260
    144  O         12.3330   25.9850   23.0510 O.2   215  ARG215     -0.2867
    145  CB        13.2390   22.8300   22.8270 C.3   215  ARG215      0.0307
    146  CG        11.9820   22.1470   22.3540 C.3   215  ARG215      0.0489
    147  CD        11.7250   20.9030   23.1650 C.3   215  ARG215      0.2205
    148  NE        10.4970   20.2530   22.7400 N.pl3 215  ARG215     -0.0865
    149  CZ        10.0600   19.0920   23.2130 C.cat 215  ARG215      0.5346
    150  NH1        8.9210   18.5810   22.7580 N.pl3 215  ARG215      0.1354
    151  NH2       10.7600   18.4390   24.1330 N.pl3 215  ARG215      0.1354
    152  N          5.6220   20.1000   19.8720 N.3   248  GLN248     -0.1245
    153  CA         6.1680   21.0810   20.7970 C.3   248  GLN248      0.1566
    154  C          7.6680   21.0830   20.5590 C.2   248  GLN248      0.2260
    155  O          8.4490   21.1070   21.5050 O.2   248  GLN248     -0.2867
    156  CB         5.8860   20.6570   22.2400 C.3   248  GLN248      0.0367
    157  CG         4.4450   20.2480   22.5020 C.3   248  GLN248      0.0905
    158  CD         3.5380   21.4330   22.7530 C.2   248  GLN248      0.2608
    159  OE1        3.7090   22.5000   22.1600 O.2   248  GLN248     -0.2717
    160  NE2        2.5530   21.2490   23.6260 N.am  248  GLN248     -0.0878
    161  N         10.4130   14.2140   13.3700 N.3   276  ARG276     -0.1245
    162  CA        11.7110   14.0070   13.9780 C.3   276  ARG276      0.1563
    163  C         12.4960   12.9930   13.1570 C.2   276  ARG276      0.2260
    164  O         12.6480   11.8310   13.5450 O.2   276  ARG276     -0.2867
    165  CB        11.5510   13.5220   15.4150 C.3   276  ARG276      0.0307
    166  CG        11.0310   14.5980   16.3560 C.3   276  ARG276      0.0489
    167  CD        10.8560   14.0920   17.7840 C.3   276  ARG276      0.2205
    168  NE        10.6170   15.1910   18.7150 N.pl3 276  ARG276     -0.0865
    169  CZ        10.4030   15.0290   20.0140 C.cat 276  ARG276      0.5346
    170  NH1       10.3930   13.8080   20.5290 N.pl3 276  ARG276      0.1354
    171  NH2       10.2160   16.0830   20.7990 N.pl3 276  ARG276      0.1354
    172  N         16.3250   13.4130   20.2530 N.3   306  TYR306     -0.1241
    173  CA        17.2650   14.0120   21.1960 C.3   306  TYR306      0.1605
    174  C         18.7100   13.6650   20.8420 C.2   306  TYR306      0.2264
    175  O         19.0160   12.5500   20.4260 O.2   306  TYR306     -0.2867
    176  CB        16.9370   13.5540   22.6270 C.3   306  TYR306      0.0534
    177  CG        15.7560   14.2710   23.2620 C.ar  306  TYR306     -0.0201
    178  CD1       14.6450   14.6470   22.5040 C.ar  306  TYR306     -0.0009
    179  CD2       15.7510   14.5740   24.6220 C.ar  306  TYR306     -0.0009
    180  CE1       13.5700   15.3090   23.0860 C.ar  306  TYR306      0.0417
    181  CE2       14.6780   15.2340   25.2110 C.ar  306  TYR306      0.0417
    182  CZ        13.5960   15.6000   24.4370 C.ar  306  TYR306      0.1957
    183  OH        12.5540   16.2870   25.0100 O.3   306  TYR306     -0.2866
@<TRIPOS>BOND
     1   163   164    2
     2   163   162    1
     3   161   162    1
     4   162   165    1
     5   165   166    1
     6   166   167    1
     7   167   168    1
     8   168   169    2
     9   152   153    1
    10   169   170    1
    11   169   171    1
    12   172   173    1
    13   175   174    2
    14   154   153    1
    15   154   155    2
    16   153   156    1
    17   174   173    1
    18   173   176    1
    19   142   143    1
    20   142   145    1
    21   142   141    1
    22   159   158    2
    23   143   144    2
    24   156   157    1
    25   146   145    1
    26   146   147    1
    27   157   158    1
    28   178   180   ar
    29   178   177   ar
    30   176   177    1
    31   148   147    1
    32   148   149    2
    33   158   160   am
    34   150   149    1
    35   180   182   ar
    36   149   151    1
    37   177   179   ar
    38    11     9    1
    39     9     8    2
    40     9    10    1
    41     8     7    1
    42   182   183    1
    43   182   181   ar
    44   179   181   ar
    45     7     6    1
    46     6     5    1
    47   130   129    1
    48   135   134    2
    49   139   138   ar
    50   129   128    1
    51   129   131    1
    52     5     2    1
    53     2     1    1
    54     2     3    1
    55   124   125    1
    56   134   133    1
    57    12     3   am
    58    12    13    1
    59   128   125    1
    60   138   140   ar
    61   138   137    1
    62   136   133    1
    63   136   137    1
    64     3     4    2
    65   132   133    1
    66   132   126   am
    67    13    14    1
    68    13    16    1
    69    19    17    1
    70   125   126    1
    71    14    15    2
    72   126   127    2
    73    38    37    1
    74    17    16    1
    75    16    18    1
    76    36    37    2
    77    36    35    1
    78    37    39    1
    79   123   122    1
    80    23    22    2
    81    35    34    1
    82   122   120   ar
    83   122   121   ar
    84    20    21    1
    85    32    31    2
    86   120   118   ar
    87    33    34    1
    88    33    30    1
    89   109   107   ar
    90   109   110   ar
    91   107   105   ar
    92   111   110    1
    93   110   108   ar
    94    24    21    1
    95    24    25    1
    96    22    21    1
    97   105   104    1
    98   105   106   ar
    99   104   101    1
   100    28    26   ar
   101    60    58   am
   102    29    30    1
   103   121   119   ar
   104   108   106   ar
   105    26    27   ar
   106    26    25    1
   107    31    30    1
   108    59    58    2
   109   118   117   ar
   110    58    57    1
   111   101   100    1
   112   101   102    1
   113    54    57    1
   114    54    53    1
   115    54    55    1
   116   119   117   ar
   117    40    41    1
   118   117   116    1
   119    53    47   am
   120    55    56    2
   121   102   103    2
   122    41    44    1
   123    41    42    1
   124    99    96    1
   125    98    97    2
   126    49    46    1
   127    49    50    1
   128   113   116    1
   129   113   112    1
   130   113   114    1
   131    47    46    1
   132    47    48    2
   133    97    96    1
   134    46    45    1
   135    96    95    1
   136    51    50    1
   137    51    52    1
   138    42    43    2
   139   114   115    2
   140    95    86   am
   141    83    81    1
   142    86    87    2
   143    86    85    1
   144    85    84    1
   145    85    88    1
   146    80    79    2
   147    82    81    1
   148    79    84   am
   149    79    78    1
   150    81    78    1
   151    66    65    1
   152    66    68    1
   153    88    89    1
   154    76    74    1
   155    65    67    1
   156    65    62    1
   157    78    77    1
   158    61    62    1
   159    89    90   ar
   160    89    91   ar
   161    90    92   ar
   162    62    63    1
   163    64    63    2
   164    74    73    1
   165    91    93   ar
   166    73    75    1
   167    73    70    1
   168    92    94   ar
   169    93    94   ar
   170    69    70    1
   171    70    71    1
   172    72    71    2
