@<TRIPOS>MOLECULE
tmp/2f12A00.pdb
 198 186 0 0 0
SMALL
GASTEIGER

@<TRIPOS>ATOM
      1  N         15.7490    5.4800   26.8780 N.3    19  ARG19      -0.1231
      2  CA        15.5620    6.7830   26.2580 C.3    19  ARG19       0.1694
      3  C         16.3550    7.8280   27.0320 C.2    19  ARG19       0.2591
      4  O         16.9510    7.5290   28.0740 O.2    19  ARG19      -0.2718
      5  CB        14.0900    7.2000   26.2820 C.3    19  ARG19       0.0321
      6  CG        13.1870    6.5530   25.2460 C.3    19  ARG19       0.0489
      7  CD        12.0010    7.4780   24.9900 C.3    19  ARG19       0.2205
      8  NE        12.4720    8.7800   24.5110 N.pl3  19  ARG19      -0.0865
      9  CZ        11.7120    9.8630   24.3700 C.cat  19  ARG19       0.5346
     10  NH1       10.4240    9.8190   24.6730 N.pl3  19  ARG19       0.1354
     11  NH2       12.2500   10.9950   23.9240 N.pl3  19  ARG19       0.1354
     12  N         16.3470    9.0540   26.5120 N.am   20  ILE20      -0.1980
     13  CA        17.0120   10.1830   27.1510 C.3    20  ILE20       0.1595
     14  C         18.5150    9.9750   27.3680 C.2    20  ILE20       0.2287
     15  O         18.9930    9.8170   28.4930 O.2    20  ILE20      -0.2864
     16  CB        16.3320   10.4960   28.4860 C.3    20  ILE20       0.0276
     17  CG1       14.8160   10.2680   28.3550 C.3    20  ILE20       0.0022
     18  CG2       16.5880   11.9520   28.8720 C.3    20  ILE20       0.0022
     19  CD1       14.1500   11.0650   27.2250 C.3    20  ILE20       0.0001
     20  N         18.1160    6.5570   30.5100 N.3    37  GLU37      -0.1245
     21  CA        17.1090    6.1840   31.4880 C.3    37  GLU37       0.1567
     22  C         16.7000    4.7440   31.1900 C.2    37  GLU37       0.2260
     23  O         16.4780    4.3870   30.0340 O.2    37  GLU37      -0.2867
     24  CB        15.8540    7.0630   31.3670 C.3    37  GLU37       0.0388
     25  CG        16.0480    8.5500   31.6030 C.3    37  GLU37       0.1160
     26  CD        14.7470    9.3180   31.4550 C.2    37  GLU37       0.3649
     27  OE1       13.7750    8.7260   30.9430 O.co2  37  GLU37      -0.2457
     28  OE2       14.6920   10.5080   31.8370 O.co2  37  GLU37      -0.2457
     29  N         13.8020    2.4890   31.5480 N.3    39  ARG39      -0.1245
     30  CA        12.3760    2.5280   31.8320 C.3    39  ARG39       0.1563
     31  C         11.7200    1.1460   31.8090 C.2    39  ARG39       0.2260
     32  O         12.1340    0.2560   31.0650 O.2    39  ARG39      -0.2867
     33  CB        11.6980    3.4730   30.8330 C.3    39  ARG39       0.0307
     34  CG        12.1640    4.9210   30.9970 C.3    39  ARG39       0.0489
     35  CD        12.4580    5.6090   29.6760 C.3    39  ARG39       0.2205
     36  NE        11.2620    6.1250   29.0200 N.pl3  39  ARG39      -0.0865
     37  CZ        10.8650    7.3940   29.0660 C.cat  39  ARG39       0.5346
     38  NH1        9.7610    7.7640   28.4320 N.pl3  39  ARG39       0.1354
     39  NH2       11.5710    8.2940   29.7340 N.pl3  39  ARG39       0.1354
     40  N         15.2670   10.5250   36.4990 N.3    77  MET77      -0.1230
     41  CA        15.2590   10.8590   35.0810 C.3    77  MET77       0.1702
     42  C         16.1430   12.0420   34.7150 C.2    77  MET77       0.2592
     43  O         16.6340   12.7630   35.5850 O.2    77  MET77      -0.2718
     44  CB        13.8190   11.0910   34.5990 C.3    77  MET77       0.0401
     45  CG        12.9510   11.9270   35.5180 C.3    77  MET77       0.0596
     46  SD        11.1790   11.7640   35.1270 S.3    77  MET77      -0.1393
     47  CE        10.8210   10.2510   35.9650 C.3    77  MET77       0.0692
     48  N         16.3580   12.2200   33.4140 N.am   78  ASN78      -0.1974
     49  CA        17.1820   13.3110   32.8910 C.3    78  ASN78       0.1688
     50  C         18.6350   13.3170   33.3580 C.2    78  ASN78       0.2292
     51  O         19.0690   14.2290   34.0530 O.2    78  ASN78      -0.2864
     52  CB        16.5470   14.6750   33.2020 C.3    78  ASN78       0.1181
     53  CG        15.3730   14.9940   32.2880 C.2    78  ASN78       0.2629
     54  OD1       15.2720   16.0960   31.7360 O.2    78  ASN78      -0.2716
     55  ND2       14.4840   14.0300   32.1220 N.am   78  ASN78      -0.0877
     56  N         16.8150   14.2500   37.8700 N.3    95  ILE95      -0.1245
     57  CA        15.5550   14.5970   38.5090 C.3    95  ILE95       0.1561
     58  C         14.8840   13.3700   39.1130 C.2    95  ILE95       0.2260
     59  O         14.8720   12.2980   38.5040 O.2    95  ILE95      -0.2867
     60  CB        14.6040   15.2830   37.4900 C.3    95  ILE95       0.0252
     61  CG1       14.6380   16.8000   37.6950 C.3    95  ILE95       0.0019
     62  CG2       13.1850   14.7900   37.6560 C.3    95  ILE95       0.0019
     63  CD1       15.9880   17.4240   37.4810 C.3    95  ILE95       0.0001
     64  N         11.2850   11.8940   40.8650 N.3    97  ILE97      -0.1245
     65  CA         9.8520   12.1500   41.0050 C.3    97  ILE97       0.1561
     66  C          9.1280   10.9880   41.6970 C.2    97  ILE97       0.2260
     67  O          9.4260    9.8220   41.4460 O.2    97  ILE97      -0.2867
     68  CB         9.2140   12.4030   39.6220 C.3    97  ILE97       0.0252
     69  CG1        9.8690   13.6250   38.9700 C.3    97  ILE97       0.0019
     70  CG2        7.7150   12.6150   39.7650 C.3    97  ILE97       0.0019
     71  CD1        9.2550   14.0270   37.6490 C.3    97  ILE97       0.0001
     72  N          3.8210   11.9260   34.0290 N.3   103  GLU103     -0.1245
     73  CA         4.4020   13.1100   33.4030 C.3   103  GLU103      0.1567
     74  C          3.3410   14.1840   33.1960 C.2   103  GLU103      0.2260
     75  O          3.5000   15.3210   33.6390 O.2   103  GLU103     -0.2867
     76  CB         5.0280   12.7490   32.0530 C.3   103  GLU103      0.0388
     77  CG         5.7100   13.9180   31.3590 C.3   103  GLU103      0.1160
     78  CD         6.1400   13.5890   29.9440 C.2   103  GLU103      0.3649
     79  OE1        6.8800   12.5990   29.7580 O.co2 103  GLU103     -0.2457
     80  OE2        5.7400   14.3220   29.0150 O.co2 103  GLU103     -0.2457
     81  N          3.2250   18.2330   34.5210 N.3   107  LEU107     -0.1245
     82  CA         3.0220   19.4690   33.7690 C.3   107  LEU107      0.1561
     83  C          1.9490   20.3720   34.3710 C.2   107  LEU107      0.2260
     84  O          2.1810   21.5670   34.5500 O.2   107  LEU107     -0.2867
     85  CB         2.6750   19.1510   32.3120 C.3   107  LEU107      0.0270
     86  CG         3.8240   18.7610   31.3750 C.3   107  LEU107      0.0019
     87  CD1        4.6390   17.6190   31.9590 C.3   107  LEU107      0.0001
     88  CD2        3.2440   18.3700   30.0250 C.3   107  LEU107      0.0001
     89  N          9.7970   20.8530   36.8820 N.3   149  PHE149     -0.1227
     90  CA        10.9920   21.3520   36.2040 C.3   149  PHE149      0.1736
     91  C         11.9140   20.1820   35.9060 C.2   149  PHE149      0.2595
     92  O         11.6280   19.0460   36.2860 O.2   149  PHE149     -0.2718
     93  CB        11.7350   22.3450   37.1090 C.3   149  PHE149      0.0547
     94  CG        12.3670   21.6990   38.3150 C.ar  149  PHE149     -0.0202
     95  CD1       13.6600   21.1820   38.2470 C.ar  149  PHE149     -0.0042
     96  CD2       11.6390   21.5380   39.4950 C.ar  149  PHE149     -0.0042
     97  CE1       14.2220   20.5050   39.3350 C.ar  149  PHE149     -0.0003
     98  CE2       12.1890   20.8630   40.5900 C.ar  149  PHE149     -0.0003
     99  CZ        13.4870   20.3420   40.5080 C.ar  149  PHE149     -0.0000
    100  N         13.0330   20.4630   35.2460 N.am  150  ALA150     -0.1980
    101  CA        13.9910   19.4150   34.9290 C.3   150  ALA150      0.1597
    102  C         15.3320   19.9930   34.5080 C.2   150  ALA150      0.2287
    103  O         15.4590   21.1940   34.2840 O.2   150  ALA150     -0.2864
    104  CB        13.4360   18.5150   33.8180 C.3   150  ALA150      0.0319
    105  N         15.0090   23.8620   32.7920 N.3   171  TYR171     -0.1241
    106  CA        13.7850   24.5890   32.4610 C.3   171  TYR171      0.1605
    107  C         12.6990   24.3100   33.4920 C.2   171  TYR171      0.2264
    108  O         12.6710   23.2440   34.1080 O.2   171  TYR171     -0.2867
    109  CB        13.2970   24.2160   31.0580 C.3   171  TYR171      0.0534
    110  CG        12.7850   22.8010   30.9290 C.ar  171  TYR171     -0.0201
    111  CD1       11.4360   22.5050   31.1140 C.ar  171  TYR171     -0.0009
    112  CD2       13.6540   21.7550   30.6390 C.ar  171  TYR171     -0.0009
    113  CE1       10.9670   21.1920   31.0100 C.ar  171  TYR171      0.0417
    114  CE2       13.1970   20.4460   30.5380 C.ar  171  TYR171      0.0417
    115  CZ        11.8560   20.1700   30.7230 C.ar  171  TYR171      0.1957
    116  OH        11.4110   18.8670   30.6300 O.3   171  TYR171     -0.2866
    117  N          8.3580   24.7130   34.4900 N.3   173  TYR173     -0.1241
    118  CA         6.9970   24.9840   34.0570 C.3   173  TYR173      0.1605
    119  C          6.4500   25.9250   35.1110 C.2   173  TYR173      0.2264
    120  O          6.2960   25.5460   36.2690 O.2   173  TYR173     -0.2867
    121  CB         6.1800   23.6940   34.0060 C.3   173  TYR173      0.0534
    122  CG         6.2460   23.0180   32.6590 C.ar  173  TYR173     -0.0201
    123  CD1        5.4080   23.4220   31.6170 C.ar  173  TYR173     -0.0009
    124  CD2        7.1890   22.0260   32.4020 C.ar  173  TYR173     -0.0009
    125  CE1        5.5130   22.8560   30.3460 C.ar  173  TYR173      0.0417
    126  CE2        7.3040   21.4530   31.1370 C.ar  173  TYR173      0.0417
    127  CZ         6.4650   21.8740   30.1160 C.ar  173  TYR173      0.1957
    128  OH         6.5860   21.3250   28.8630 O.3   173  TYR173     -0.2866
    129  N         11.8560   24.9330   26.4640 N.3   208  LEU208     -0.1231
    130  CA        12.0240   23.7580   27.3150 C.3   208  LEU208      0.1693
    131  C         13.4740   23.2960   27.3830 C.2   208  LEU208      0.2591
    132  O         14.3960   24.1010   27.4800 O.2   208  LEU208     -0.2718
    133  CB        11.1850   22.5850   26.7960 C.3   208  LEU208      0.0284
    134  CG         9.6750   22.7010   26.6310 C.3   208  LEU208      0.0019
    135  CD1        9.3280   23.6830   25.5100 C.3   208  LEU208      0.0001
    136  CD2        9.1310   21.3170   26.3060 C.3   208  LEU208      0.0001
    137  N         13.6430   21.9750   27.3210 N.am  209  GLU209     -0.1979
    138  CA        14.9380   21.3270   27.3800 C.3   209  GLU209      0.1602
    139  C         15.9470   22.1000   26.5620 C.2   209  GLU209      0.2287
    140  O         15.6940   22.4470   25.4110 O.2   209  GLU209     -0.2864
    141  CB        14.8240   19.8990   26.8460 C.3   209  GLU209      0.0415
    142  CG        13.7340   19.0920   27.5220 C.3   209  GLU209      0.1163
    143  CD        13.2560   17.9440   26.6650 C.2   209  GLU209      0.3649
    144  OE1       13.0210   18.1680   25.4580 O.co2 209  GLU209     -0.2457
    145  OE2       13.1040   16.8240   27.1930 O.co2 209  GLU209     -0.2457
    146  N         14.6150   23.9560   23.0610 N.3   225  ARG225     -0.1245
    147  CA        13.4720   23.3820   22.3810 C.3   225  ARG225      0.1563
    148  C         12.3050   24.3340   22.6410 C.2   225  ARG225      0.2260
    149  O         12.1490   24.8460   23.7500 O.2   225  ARG225     -0.2867
    150  CB        13.1620   21.9990   22.9730 C.3   225  ARG225      0.0307
    151  CG        11.8390   21.3860   22.5250 C.3   225  ARG225      0.0489
    152  CD        11.5940   20.0650   23.2340 C.3   225  ARG225      0.2205
    153  NE        10.3080   19.4730   22.8750 N.pl3 225  ARG225     -0.0865
    154  CZ         9.8760   18.2910   23.3100 C.cat 225  ARG225      0.5346
    155  NH1        8.6900   17.8370   22.9260 N.pl3 225  ARG225      0.1354
    156  NH2       10.6260   17.5600   24.1250 N.pl3 225  ARG225      0.1354
    157  N          7.9650   25.4760   21.3890 N.3   227  HIS227     -0.1241
    158  CA         6.6950   24.9530   20.9060 C.3   227  HIS227      0.1621
    159  C          6.3850   25.5130   19.5230 C.2   227  HIS227      0.2264
    160  O          5.3380   25.2220   18.9450 O.2   227  HIS227     -0.2867
    161  CB         5.5730   25.3130   21.8860 C.3   227  HIS227      0.0745
    162  CG         5.5380   24.4490   23.1100 C.ar  227  HIS227      0.0817
    163  ND1        4.8210   24.7850   24.2390 N.ar  227  HIS227     -0.2268
    164  CD2        6.1140   23.2520   23.3730 C.ar  227  HIS227      0.1154
    165  CE1        4.9580   23.8320   25.1450 C.ar  227  HIS227      0.1986
    166  NE2        5.7380   22.8910   24.6440 N.ar  227  HIS227     -0.2212
    167  N          5.3910   18.9230   19.7510 N.3   258  GLN258     -0.1245
    168  CA         5.8530   19.7870   20.8310 C.3   258  GLN258      0.1566
    169  C          7.3390   20.0530   20.6340 C.2   258  GLN258      0.2260
    170  O          8.0240   20.5170   21.5470 O.2   258  GLN258     -0.2867
    171  CB         5.6440   19.0970   22.1820 C.3   258  GLN258      0.0367
    172  CG         4.2000   18.7310   22.5030 C.3   258  GLN258      0.0905
    173  CD         3.3450   19.9390   22.8370 C.2   258  GLN258      0.2608
    174  OE1        2.1480   19.8110   23.0930 O.2   258  GLN258     -0.2717
    175  NE2        3.9560   21.1190   22.8390 N.am  258  GLN258     -0.0878
    176  N          9.8530   13.4650   13.8960 N.3   286  ARG286     -0.1245
    177  CA        11.1770   13.2630   14.4730 C.3   286  ARG286      0.1563
    178  C         11.9520   12.2490   13.6420 C.2   286  ARG286      0.2260
    179  O         12.0060   11.0660   13.9740 O.2   286  ARG286     -0.2867
    180  CB        11.0690   12.7820   15.9250 C.3   286  ARG286      0.0307
    181  CG        10.5740   13.8540   16.8870 C.3   286  ARG286      0.0489
    182  CD        10.4530   13.3220   18.2980 C.3   286  ARG286      0.2205
    183  NE         9.9720   14.3440   19.2240 N.pl3 286  ARG286     -0.0865
    184  CZ         9.8320   14.1580   20.5320 C.cat 286  ARG286      0.5346
    185  NH1       10.1340   12.9840   21.0650 N.pl3 286  ARG286      0.1354
    186  NH2        9.3990   15.1480   21.3050 N.pl3 286  ARG286      0.1354
    187  N         15.8900   12.3790   20.5460 N.3   316  TYR316     -0.1241
    188  CA        16.8640   13.0090   21.4330 C.3   316  TYR316      0.1605
    189  C         18.3150   12.6620   21.1130 C.2   316  TYR316      0.2264
    190  O         18.6130   11.5650   20.6390 O.2   316  TYR316     -0.2867
    191  CB        16.5620   12.6140   22.8790 C.3   316  TYR316      0.0534
    192  CG        15.3970   13.3420   23.5100 C.ar  316  TYR316     -0.0201
    193  CD1       14.2090   13.5630   22.8100 C.ar  316  TYR316     -0.0009
    194  CD2       15.4840   13.8040   24.8200 C.ar  316  TYR316     -0.0009
    195  CE1       13.1340   14.2370   23.4160 C.ar  316  TYR316      0.0417
    196  CE2       14.4340   14.4660   25.4240 C.ar  316  TYR316      0.0417
    197  CZ        13.2660   14.6830   24.7250 C.ar  316  TYR316      0.1957
    198  OH        12.2500   15.3660   25.3480 O.3   316  TYR316     -0.2866
@<TRIPOS>BOND
     1   178   179    2
     2   178   177    1
     3   176   177    1
     4   177   180    1
     5   180   181    1
     6   181   182    1
     7   182   183    1
     8   160   159    2
     9   183   184    2
    10   159   158    1
    11   167   168    1
    12   184   185    1
    13   184   186    1
    14   187   188    1
    15   169   168    1
    16   169   170    2
    17   190   189    2
    18   168   171    1
    19   158   157    1
    20   158   161    1
    21   189   188    1
    22   188   191    1
    23   161   162    1
    24   171   172    1
    25   147   148    1
    26   147   150    1
    27   147   146    1
    28   172   173    1
    29   151   150    1
    30   151   152    1
    31   148   149    2
    32   193   195   ar
    33   193   192   ar
    34   173   175   am
    35   173   174    2
    36   153   152    1
    37   153   154    2
    38   191   192    1
    39   155   154    1
    40   162   164   ar
    41   162   163   ar
    42   154   156    1
    43   164   166   ar
    44   195   197   ar
    45   192   194   ar
    46    11     9    1
    47   163   165   ar
    48     9     8    2
    49     9    10    1
    50     8     7    1
    51   166   165   ar
    52   197   198    1
    53   197   196   ar
    54   194   196   ar
    55     7     6    1
    56     6     5    1
    57   140   139    2
    58   144   143   ar
    59   135   134    1
    60     2     5    1
    61     2     1    1
    62     2     3    1
    63   136   134    1
    64   129   130    1
    65    12     3   am
    66    12    13    1
    67   139   138    1
    68   134   133    1
    69   143   145   ar
    70   143   142    1
    71   133   130    1
    72   141   138    1
    73   141   142    1
    74     3     4    2
    75    13    14    1
    76    13    16    1
    77    19    17    1
    78   130   131    1
    79   137   138    1
    80   137   131   am
    81    14    15    2
    82   131   132    2
    83    17    16    1
    84    38    37    1
    85    16    18    1
    86   128   127    1
    87    80    78   ar
    88    36    37    2
    89    36    35    1
    90    37    39    1
    91    35    34    1
    92    79    78   ar
    93    78    77    1
    94    88    86    1
    95    23    22    2
    96   127   125   ar
    97   127   126   ar
    98   125   123   ar
    99    20    21    1
   100   114   112   ar
   101   114   115   ar
   102   116   115    1
   103   112   110   ar
   104   115   113   ar
   105    33    34    1
   106    33    30    1
   107   110   109    1
   108   110   111   ar
   109    27    26   ar
   110   113   111   ar
   111   109   106    1
   112    32    31    2
   113   126   124   ar
   114    22    21    1
   115    77    76    1
   116    24    21    1
   117    24    25    1
   118    86    87    1
   119    86    85    1
   120    26    25    1
   121    26    28   ar
   122    29    30    1
   123   123   122   ar
   124    54    53    2
   125    31    30    1
   126    76    73    1
   127    55    53   am
   128    53    52    1
   129    85    82    1
   130   124   122   ar
   131   106   105    1
   132   106   107    1
   133   122   121    1
   134    49    52    1
   135    49    50    1
   136    49    48    1
   137    74    73    1
   138    74    75    2
   139    50    51    2
   140    73    72    1
   141    48    42   am
   142   107   108    2
   143    82    83    1
   144    82    81    1
   145   104   101    1
   146   121   118    1
   147   118   117    1
   148   118   119    1
   149   103   102    2
   150    83    84    2
   151   102   101    1
   152    44    41    1
   153    44    45    1
   154    42    41    1
   155    42    43    2
   156   101   100    1
   157    41    40    1
   158   119   120    2
   159    46    45    1
   160    46    47    1
   161   100    91   am
   162    91    90    1
   163    91    92    2
   164    90    89    1
   165    90    93    1
   166    93    94    1
   167    63    61    1
   168    60    62    1
   169    60    61    1
   170    60    57    1
   171    71    69    1
   172    56    57    1
   173    95    94   ar
   174    95    97   ar
   175    94    96   ar
   176    59    58    2
   177    57    58    1
   178    69    68    1
   179    97    99   ar
   180    96    98   ar
   181    68    70    1
   182    68    65    1
   183    99    98   ar
   184    64    65    1
   185    65    66    1
   186    67    66    2
