@<TRIPOS>MOLECULE
tmp/2f14A01.pdb
 158 155 0 0 0
SMALL
GASTEIGER

@<TRIPOS>ATOM
      1  N        -14.0010    8.2280   12.7560 N.3    88  ILE88      -0.1231
      2  CA       -13.1380    8.6580   11.6600 C.3    88  ILE88       0.1692
      3  C        -12.8250    7.5110   10.6960 C.2    88  ILE88       0.2591
      4  O        -12.6880    7.7270    9.4950 O.2    88  ILE88      -0.2718
      5  CB       -11.8150    9.2900   12.1880 C.3    88  ILE88       0.0266
      6  CG1      -10.9080    9.6630   11.0110 C.3    88  ILE88       0.0019
      7  CG2      -11.1110    8.3340   13.1420 C.3    88  ILE88       0.0020
      8  CD1       -9.7050   10.5140   11.3890 C.3    88  ILE88       0.0001
      9  N        -12.7320    6.2910   11.2200 N.am   89  GLN89      -0.1979
     10  CA       -12.4340    5.1290   10.3870 C.3    89  GLN89       0.1601
     11  C        -12.5810    3.8340   11.1700 C.2    89  GLN89       0.2287
     12  O        -12.6560    3.8460   12.3970 O.2    89  GLN89      -0.2864
     13  CB       -10.9890    5.2050    9.8700 C.3    89  GLN89       0.0394
     14  CG        -9.9430    5.3110   10.9990 C.3    89  GLN89       0.0908
     15  CD        -9.1320    4.0400   11.2250 C.2    89  GLN89       0.2608
     16  OE1       -9.6430    2.9240   11.1140 O.2    89  GLN89      -0.2717
     17  NE2       -7.8580    4.2120   11.5740 N.am   89  GLN89      -0.0878
     18  N        -11.2240   -0.4960   10.9560 N.3    91  HIS91      -0.1241
     19  CA       -10.3440   -1.4520   10.3050 C.3    91  HIS91       0.1621
     20  C        -10.3960   -2.7260   11.1220 C.2    91  HIS91       0.2264
     21  O        -11.0570   -2.7790   12.1620 O.2    91  HIS91      -0.2867
     22  CB        -8.9050   -0.9340   10.2770 C.3    91  HIS91       0.0745
     23  CG        -8.3440   -0.6550   11.6370 C.ar   91  HIS91       0.0817
     24  ND1       -8.5340    0.5460   12.2860 N.ar   91  HIS91      -0.2268
     25  CD2       -7.6570   -1.4440   12.4960 C.ar   91  HIS91       0.1154
     26  CE1       -7.9900    0.4830   13.4900 C.ar   91  HIS91       0.1986
     27  NE2       -7.4520   -0.7150   13.6410 N.ar   91  HIS91      -0.2212
     28  N         -8.1030   -6.5240   12.3750 N.3    93  HIS93      -0.1241
     29  CA        -6.8380   -7.2050   12.6090 C.3    93  HIS93       0.1621
     30  C         -7.2960   -8.6540   12.5010 C.2    93  HIS93       0.2264
     31  O         -8.3340   -9.0150   13.0620 O.2    93  HIS93      -0.2867
     32  CB        -6.2990   -6.9290   14.0110 C.3    93  HIS93       0.0745
     33  CG        -5.9550   -5.4940   14.2480 C.ar   93  HIS93       0.0817
     34  ND1       -4.7090   -4.9700   13.9750 N.ar   93  HIS93      -0.2268
     35  CD2       -6.7090   -4.4620   14.6920 C.ar   93  HIS93       0.1154
     36  CE1       -4.7100   -3.6770   14.2440 C.ar   93  HIS93       0.1986
     37  NE2       -5.9120   -3.3440   14.6800 N.ar   93  HIS93      -0.2212
     38  N        -12.0810   -2.6520   14.7840 N.3   116  HIS116     -0.1241
     39  CA       -11.8060   -1.4440   15.5540 C.3   116  HIS116      0.1621
     40  C        -12.4450   -0.2230   14.9130 C.2   116  HIS116      0.2264
     41  O        -12.0640    0.1710   13.8080 O.2   116  HIS116     -0.2867
     42  CB       -10.2940   -1.2090   15.6660 C.3   116  HIS116      0.0745
     43  CG        -9.6050   -2.1560   16.5970 C.ar  116  HIS116      0.0817
     44  ND1       -8.2460   -2.3830   16.5590 N.ar  116  HIS116     -0.2268
     45  CD2      -10.0900   -2.9380   17.5890 C.ar  116  HIS116      0.1154
     46  CE1       -7.9240   -3.2670   17.4860 C.ar  116  HIS116      0.1986
     47  NE2       -9.0240   -3.6200   18.1250 N.ar  116  HIS116     -0.2212
     48  N        -12.6800    3.5250   15.1980 N.3   118  VAL118     -0.1245
     49  CA       -11.9120    4.6100   15.7970 C.3   118  VAL118      0.1561
     50  C        -12.6130    5.9620   15.8500 C.2   118  VAL118      0.2260
     51  O        -13.0850    6.4660   14.8360 O.2   118  VAL118     -0.2867
     52  CB       -10.5740    4.7670   15.0380 C.3   118  VAL118      0.0252
     53  CG1       -9.6710    5.7470   15.7520 C.3   118  VAL118      0.0019
     54  CG2       -9.9040    3.4070   14.8900 C.3   118  VAL118      0.0019
     55  N         -9.3140   18.3880   16.2870 N.3   126  ASP126     -0.1225
     56  CA        -8.9980   17.4510   15.2170 C.3   126  ASP126      0.1805
     57  C         -8.2890   16.2190   15.7530 C.2   126  ASP126      0.2598
     58  O         -7.8580   16.1890   16.9070 O.2   126  ASP126     -0.2718
     59  CB        -8.1540   18.1190   14.1170 C.3   126  ASP126      0.1424
     60  CG        -6.7770   18.5550   14.5940 C.2   126  ASP126      0.3668
     61  OD1       -6.0500   17.7430   15.2010 O.co2 126  ASP126     -0.2456
     62  OD2       -6.4070   19.7200   14.3400 O.co2 126  ASP126     -0.2456
     63  N         -8.1800   15.2000   14.9080 N.am  127  PHE127     -0.1962
     64  CA        -7.5430   13.9500   15.2970 C.3   127  PHE127      0.1771
     65  C         -6.1010   14.1420   15.7550 C.2   127  PHE127      0.2620
     66  O         -5.6450   13.4610   16.6740 O.2   127  PHE127     -0.2715
     67  CB        -7.6020   12.9540   14.1340 C.3   127  PHE127      0.0574
     68  CG        -7.0500   11.6000   14.4690 C.ar  127  PHE127     -0.0200
     69  CD1       -5.6850   11.3550   14.4140 C.ar  127  PHE127     -0.0042
     70  CD2       -7.9010   10.5710   14.8630 C.ar  127  PHE127     -0.0042
     71  CE1       -5.1690   10.1050   14.7450 C.ar  127  PHE127     -0.0003
     72  CE2       -7.3960    9.3170   15.1990 C.ar  127  PHE127     -0.0003
     73  CZ        -6.0290    9.0820   15.1400 C.ar  127  PHE127     -0.0000
     74  N         -5.3890   15.0630   15.1110 N.am  128  GLY128     -0.1954
     75  CA        -4.0080   15.3220   15.4750 C.3   128  GLY128      0.1869
     76  C         -3.8600   15.8150   16.9000 C.2   128  GLY128      0.2309
     77  O         -2.9940   15.3520   17.6370 O.2   128  GLY128     -0.2863
     78  N         -4.6170   12.9960   19.5600 N.3   131  VAL131     -0.1231
     79  CA        -3.5900   12.0180   19.9130 C.3   131  VAL131      0.1692
     80  C         -2.4740   12.5770   20.7870 C.2   131  VAL131      0.2591
     81  O         -1.4160   11.9670   20.9390 O.2   131  VAL131     -0.2718
     82  CB        -2.9890   11.3200   18.6620 C.3   131  VAL131      0.0266
     83  CG1       -4.0630   10.4840   17.9900 C.3   131  VAL131      0.0020
     84  CG2       -2.4210   12.3390   17.6860 C.3   131  VAL131      0.0020
     85  N         -2.7230   13.7440   21.3680 N.am  132  GLN132     -0.1979
     86  CA        -1.7700   14.3660   22.2790 C.3   132  GLN132      0.1601
     87  C         -2.4700   14.4830   23.6320 C.2   132  GLN132      0.2287
     88  O         -1.9700   15.1420   24.5450 O.2   132  GLN132     -0.2864
     89  CB        -1.3770   15.7610   21.7860 C.3   132  GLN132      0.0394
     90  CG        -0.8480   15.7910   20.3640 C.3   132  GLN132      0.0908
     91  CD        -0.3920   17.1750   19.9430 C.2   132  GLN132      0.2608
     92  OE1       -0.2980   17.4730   18.7540 O.2   132  GLN132     -0.2717
     93  NE2       -0.0960   18.0260   20.9190 N.am  132  GLN132     -0.0878
     94  N        -11.8770    3.7660   21.0280 N.3   139  VAL139     -0.1245
     95  CA       -11.9790    2.7430   20.0050 C.3   139  VAL139      0.1561
     96  C        -12.9480    1.6840   20.4810 C.2   139  VAL139      0.2260
     97  O        -12.8280    1.1770   21.5980 O.2   139  VAL139     -0.2867
     98  CB       -10.6150    2.0770   19.7000 C.3   139  VAL139      0.0252
     99  CG1      -10.7950    1.0160   18.6060 C.3   139  VAL139      0.0019
    100  CG2       -9.6090    3.1260   19.2480 C.3   139  VAL139      0.0019
    101  N         -2.9600    2.9870   21.2130 N.3   194  LEU194     -0.1231
    102  CA        -3.1200    2.5350   19.8410 C.3   194  LEU194      0.1693
    103  C         -2.3660    1.2100   19.8570 C.2   194  LEU194      0.2593
    104  O         -1.3700    1.0770   20.5780 O.2   194  LEU194     -0.2718
    105  CB        -2.4260    3.4960   18.8790 C.3   194  LEU194      0.0284
    106  CG        -2.9480    4.9320   18.8440 C.3   194  LEU194      0.0019
    107  CD1       -2.0450    5.7800   17.9650 C.3   194  LEU194      0.0001
    108  CD2       -4.3810    4.9360   18.3180 C.3   194  LEU194      0.0001
    109  N         -2.8160    0.2330   19.0770 N.am  195  THR195     -0.1939
    110  CA        -2.1390   -1.0600   19.0660 C.3   195  THR195      0.2028
    111  C         -1.0600   -1.1800   17.9960 C.2   195  THR195      0.2643
    112  O         -0.4370   -2.2300   17.8540 O.2   195  THR195     -0.2714
    113  CB        -3.1250   -2.2180   18.8910 C.3   195  THR195      0.1808
    114  OG1       -3.7610   -2.1120   17.6100 O.3   195  THR195     -0.2208
    115  CG2       -4.1700   -2.1960   19.9950 C.3   195  THR195      0.0379
    116  N         -0.8450   -0.1110   17.2390 N.am  196  THR196     -0.1937
    117  CA         0.2020   -0.1060   16.2260 C.3   196  THR196      0.2013
    118  C          0.9860    1.1710   16.4520 C.2   196  THR196      0.2484
    119  O          0.4960    2.1040   17.0970 O.2   196  THR196     -0.2729
    120  CB        -0.3420   -0.0250   14.7750 C.3   196  THR196      0.1807
    121  OG1       -0.8330    1.2980   14.5220 O.3   196  THR196     -0.2208
    122  CG2       -1.4560   -1.0310   14.5480 C.3   196  THR196      0.0379
    123  N          2.2260    1.2260   15.9520 N.am  197  PRO197     -0.2715
    124  CA         2.9930    2.4560   16.1390 C.3   197  PRO197      0.1521
    125  C          2.1030    3.5780   15.5920 C.2   197  PRO197      0.2440
    126  O          1.3400    3.3570   14.6430 O.2   197  PRO197     -0.2731
    127  CB         4.2250    2.2110   15.2790 C.3   197  PRO197      0.0310
    128  CG         4.4680    0.7400   15.4850 C.3   197  PRO197      0.0237
    129  CD         3.0610    0.1580   15.3690 C.3   197  PRO197      0.0939
    130  N          2.1980    4.7960   16.1520 N.am  198  PRO198     -0.2727
    131  CA         3.0590    5.2530   17.2500 C.3   198  PRO198      0.1402
    132  C          2.7330    4.7840   18.6780 C.2   198  PRO198      0.2269
    133  O          3.3460    5.2590   19.6340 O.2   198  PRO198     -0.2865
    134  CB         3.0050    6.7720   17.1090 C.3   198  PRO198      0.0296
    135  CG         1.6070    7.0060   16.6420 C.3   198  PRO198      0.0237
    136  CD         1.4200    5.9200   15.5970 C.3   198  PRO198      0.0939
    137  N          0.5020    5.4790   20.7630 N.3   200  LEU200     -0.1245
    138  CA         0.1610    6.5580   21.6830 C.3   200  LEU200      0.1561
    139  C         -0.9010    6.1440   22.7030 C.2   200  LEU200      0.2260
    140  O         -1.8870    5.4960   22.3600 O.2   200  LEU200     -0.2867
    141  CB        -0.2960    7.7820   20.8820 C.3   200  LEU200      0.0270
    142  CG         0.7710    8.2960   19.9050 C.3   200  LEU200      0.0019
    143  CD1        0.2070    9.4310   19.0610 C.3   200  LEU200      0.0001
    144  CD2        1.9990    8.7570   20.6790 C.3   200  LEU200      0.0001
    145  N        -10.5620    2.3290   25.6960 N.3   205  TRP205     -0.1241
    146  CA       -11.0260    1.1470   24.9890 C.3   205  TRP205      0.1605
    147  C        -12.3770    0.6710   25.4850 C.2   205  TRP205      0.2264
    148  O        -12.6380    0.6370   26.6820 O.2   205  TRP205     -0.2867
    149  CB       -10.0130    0.0030   25.1180 C.3   205  TRP205      0.0550
    150  CG        -8.9060    0.1010   24.1310 C.ar  205  TRP205      0.0003
    151  CD1       -7.6920    0.6960   24.3110 C.ar  205  TRP205      0.0946
    152  CD2       -8.9390   -0.3460   22.7750 C.ar  205  TRP205      0.0152
    153  NE1       -6.9660    0.6510   23.1470 N.ar  205  TRP205     -0.2442
    154  CE2       -7.7080    0.0150   22.1870 C.ar  205  TRP205      0.0810
    155  CE3       -9.8930   -1.0190   21.9970 C.ar  205  TRP205      0.0012
    156  CZ2       -7.4040   -0.2710   20.8540 C.ar  205  TRP205      0.0191
    157  CZ3       -9.5910   -1.3050   20.6720 C.ar  205  TRP205      0.0001
    158  CH2       -8.3550   -0.9300   20.1140 C.ar  205  TRP205      0.0015
@<TRIPOS>BOND
     1     4     3    2
     2    13    10    1
     3    13    14    1
     4    22    19    1
     5    22    23    1
     6    19    18    1
     7    19    20    1
     8    10    11    1
     9    10     9    1
    10     3     9   am
    11     3     2    1
    12    14    15    1
    13     6     8    1
    14     6     5    1
    15    16    15    2
    16    20    21    2
    17    11    12    2
    18    15    17   am
    19    23    24   ar
    20    23    25   ar
    21     2     5    1
    22     2     1    1
    23     5     7    1
    24    24    26   ar
    25    28    29    1
    26    25    27   ar
    27    30    29    1
    28    30    31    2
    29    29    32    1
    30    26    27   ar
    31    41    40    2
    32    34    36   ar
    33    34    33   ar
    34    32    33    1
    35    59    60    1
    36    59    56    1
    37    67    68    1
    38    67    64    1
    39    36    37   ar
    40    33    35   ar
    41    62    60   ar
    42    69    68   ar
    43    69    71   ar
    44    68    70   ar
    45   121   120    1
    46   122   120    1
    47    60    61   ar
    48   126   125    2
    49    37    35   ar
    50    71    73   ar
    51   120   117    1
    52    38    39    1
    53    51    50    2
    54    70    72   ar
    55    54    52    1
    56    63    64    1
    57    63    57   am
    58    40    39    1
    59    52    53    1
    60    52    49    1
    61    74    75    1
    62    74    65   am
    63    73    72   ar
    64    48    49    1
    65    56    57    1
    66    56    55    1
    67   127   128    1
    68   127   124    1
    69    64    65    1
    70   129   128    1
    71   129   123    1
    72    75    76    1
    73    39    42    1
    74   125   124    1
    75   125   130   am
    76   136   130    1
    77   136   135    1
    78    42    43    1
    79    57    58    2
    80    65    66    2
    81    49    50    1
    82   123   124    1
    83   123   118   am
    84   130   131    1
    85   117   118    1
    86   117   116    1
    87   118   119    2
    88    44    43   ar
    89    44    46   ar
    90    43    45   ar
    91   135   134    1
    92    76    77    2
    93   134   131    1
    94   116   111   am
    95   131   132    1
    96    46    47   ar
    97    45    47   ar
    98   114   113    1
    99    84    82    1
   100   112   111    2
   101   107   106    1
   102    83    82    1
   103   111   110    1
   104   108   106    1
   105    99    98    1
   106    82    79    1
   107   132   133    2
   108    92    91    2
   109   106   105    1
   110   105   102    1
   111   113   110    1
   112   113   115    1
   113   143   142    1
   114   110   109    1
   115   109   103   am
   116   100    98    1
   117    78    79    1
   118    98    95    1
   119   102   103    1
   120   102   101    1
   121   103   104    2
   122   142   144    1
   123   142   141    1
   124    79    80    1
   125    91    90    1
   126    91    93   am
   127    95    96    1
   128    95    94    1
   129   158   157   ar
   130   158   156   ar
   131    90    89    1
   132    96    97    2
   133   157   155   ar
   134   137   138    1
   135    80    81    2
   136    80    85   am
   137   156   154   ar
   138   141   138    1
   139    85    86    1
   140   138   139    1
   141    89    86    1
   142   155   152   ar
   143   154   152   ar
   144   154   153   ar
   145    86    87    1
   146   140   139    2
   147   152   150   ar
   148   153   151   ar
   149    87    88    2
   150   150   151   ar
   151   150   149    1
   152   146   149    1
   153   146   147    1
   154   146   145    1
   155   147   148    2
