@<TRIPOS>MOLECULE
tmp/2f17A02.pdb
 133 126 0 0 0
SMALL
GASTEIGER

@<TRIPOS>ATOM
      1  N         32.6500   55.9790   13.6230 N.3    36  LEU36      -0.1231
      2  CA        31.8610   54.7690   13.4570 C.3    36  LEU36       0.1693
      3  C         31.6640   54.4570   11.9800 C.2    36  LEU36       0.2592
      4  O         32.0600   55.2360   11.1150 O.2    36  LEU36      -0.2718
      5  CB        30.5070   54.9140   14.1530 C.3    36  LEU36       0.0284
      6  CG        30.5620   55.3640   15.6130 C.3    36  LEU36       0.0019
      7  CD1       29.1750   55.2520   16.2170 C.3    36  LEU36       0.0001
      8  CD2       31.5510   54.5130   16.3930 C.3    36  LEU36       0.0001
      9  N         31.0500   53.3140   11.6990 N.am   37  ASN37      -0.1960
     10  CA        30.8270   52.8930   10.3270 C.3    37  ASN37       0.1819
     11  C         29.6770   53.6200    9.6440 C.2    37  ASN37       0.2621
     12  O         28.5870   53.0740    9.4800 O.2    37  ASN37      -0.2715
     13  CB        30.6010   51.3830   10.2740 C.3    37  ASN37       0.1195
     14  CG        30.5450   50.8590    8.8590 C.2    37  ASN37       0.2630
     15  OD1       31.1620   51.4230    7.9590 O.2    37  ASN37      -0.2716
     16  ND2       29.8170   49.7680    8.6540 N.am   37  ASN37      -0.0877
     17  N         29.9470   54.8550    9.2410 N.am   38  GLN38      -0.1977
     18  CA        28.9720   55.6900    8.5670 C.3    38  GLN38       0.1601
     19  C         29.6890   56.7640    7.7590 C.2    38  GLN38       0.2287
     20  O         30.8410   57.1020    8.0340 O.2    38  GLN38      -0.2864
     21  CB        28.0350   56.3330    9.5950 C.3    38  GLN38       0.0394
     22  CG        26.9250   55.4050   10.1110 C.3    38  GLN38       0.0908
     23  CD        25.7550   55.2920    9.1460 C.2    38  GLN38       0.2608
     24  OE1       25.1180   56.2960    8.8140 O.2    38  GLN38      -0.2717
     25  NE2       25.4650   54.0700    8.6930 N.am   38  GLN38      -0.0878
     26  N         35.8920   52.3810   14.7440 N.3    57  ALA57      -0.1231
     27  CA        35.1990   51.1560   15.0990 C.3    57  ALA57       0.1694
     28  C         34.9530   50.3790   13.8100 C.2    57  ALA57       0.2592
     29  O         34.1670   50.7990   12.9660 O.2    57  ALA57      -0.2718
     30  CB        33.8840   51.4770   15.7820 C.3    57  ALA57       0.0304
     31  N         35.6430   49.2530   13.6650 N.am   58  ASP58      -0.1960
     32  CA        35.5220   48.4020   12.4870 C.3    58  ASP58       0.1840
     33  C         35.3560   49.1930   11.1930 C.2    58  ASP58       0.2622
     34  O         36.2820   49.8690   10.7510 O.2    58  ASP58      -0.2715
     35  CB        34.3500   47.4340   12.6440 C.3    58  ASP58       0.1450
     36  CG        34.4710   46.2210   11.7340 C.2    58  ASP58       0.3671
     37  OD1       35.3720   46.1920   10.8670 O.co2  58  ASP58      -0.2456
     38  OD2       33.6590   45.2910   11.8830 O.co2  58  ASP58      -0.2456
     39  N         34.1730   49.1090   10.5890 N.am   59  GLY59      -0.1954
     40  CA        33.9220   49.8100    9.3400 C.3    59  GLY59       0.1869
     41  C         34.3460   51.2640    9.3030 C.2    59  GLY59       0.2309
     42  O         34.6760   51.7870    8.2360 O.2    59  GLY59      -0.2863
     43  N         34.6890   42.6670   10.5810 N.3    85  ASP85      -0.1225
     44  CA        33.6030   42.0860    9.7430 C.3    85  ASP85       0.1805
     45  C         33.1070   43.2430    8.9810 C.2    85  ASP85       0.2598
     46  O         31.9520   43.3440    8.5610 O.2    85  ASP85      -0.2718
     47  CB        32.4950   41.3260   10.5830 C.3    85  ASP85       0.1424
     48  CG        31.3100   42.1850   11.0920 C.2    85  ASP85       0.3668
     49  OD1       31.3180   43.4160   11.0290 O.co2  85  ASP85      -0.2456
     50  OD2       30.3470   41.5280   11.6000 O.co2  85  ASP85      -0.2456
     51  N         34.0330   44.1680    8.8260 N.am   86  SER86      -0.1952
     52  CA        33.6800   45.3190    8.0940 C.3    86  SER86       0.1924
     53  C         34.8560   45.9820    7.4210 C.2    86  SER86       0.2314
     54  O         34.7240   46.4140    6.2760 O.2    86  SER86      -0.2863
     55  CB        32.9300   46.2950    9.0000 C.3    86  SER86       0.2116
     56  OG        31.5600   46.3670    8.6370 O.3    86  SER86      -0.2180
     57  N         28.2670   45.7440   20.6660 N.3   111  THR111     -0.1203
     58  CA        28.6210   46.3580   19.3990 C.3   111  THR111      0.1994
     59  C         30.0650   46.8300   19.4330 C.2   111  THR111      0.2618
     60  O         30.6540   46.9810   20.5050 O.2   111  THR111     -0.2717
     61  CB        27.7240   47.5700   19.0980 C.3   111  THR111      0.1784
     62  OG1       27.8510   48.5320   20.1540 O.3   111  THR111     -0.2211
     63  CG2       26.2680   47.1380   18.9670 C.3   111  THR111      0.0376
     64  N         30.6350   47.0630   18.2550 N.am  112  ASP112     -0.1959
     65  CA        32.0090   47.5270   18.1740 C.3   112  ASP112      0.1840
     66  C         32.1420   48.9120   18.7870 C.2   112  ASP112      0.2622
     67  O         33.2000   49.2700   19.2980 O.2   112  ASP112     -0.2715
     68  CB        32.4870   47.5470   16.7210 C.3   112  ASP112      0.1450
     69  CG        32.7440   46.1530   16.1720 C.2   112  ASP112      0.3671
     70  OD1       33.3940   45.3470   16.8730 O.co2 112  ASP112     -0.2456
     71  OD2       32.3130   45.8650   15.0370 O.co2 112  ASP112     -0.2456
     72  N         31.0600   49.6840   18.7350 N.am  113  PHE113     -0.1974
     73  CA        31.0340   51.0310   19.2980 C.3   113  PHE113      0.1639
     74  C         31.3060   50.9370   20.7970 C.2   113  PHE113      0.2290
     75  O         32.2000   51.6030   21.3180 O.2   113  PHE113     -0.2864
     76  CB        29.6600   51.6680   19.0620 C.3   113  PHE113      0.0560
     77  CG        29.5070   53.0490   19.6470 C.ar  113  PHE113     -0.0200
     78  CD1       28.2400   53.5840   19.8580 C.ar  113  PHE113     -0.0042
     79  CD2       30.6180   53.8200   19.9720 C.ar  113  PHE113     -0.0042
     80  CE1       28.0810   54.8630   20.3840 C.ar  113  PHE113     -0.0003
     81  CE2       30.4680   55.1000   20.4990 C.ar  113  PHE113     -0.0003
     82  CZ        29.1990   55.6240   20.7060 C.ar  113  PHE113     -0.0000
     83  N         26.5870   56.8790   13.4930 N.3   139  GLY139     -0.1225
     84  CA        25.7830   56.0920   14.4080 C.3   139  GLY139      0.1811
     85  C         24.3290   56.5040   14.5340 C.2   139  GLY139      0.2280
     86  O         23.5660   55.8490   15.2380 O.2   139  GLY139     -0.2866
     87  N         22.4380   57.3250   11.6190 N.3   141  GLY141     -0.1210
     88  CA        21.7810   57.1180   10.3430 C.3   141  GLY141      0.1956
     89  C         21.8830   55.6550    9.9780 C.2   141  GLY141      0.2612
     90  O         22.4130   54.8750   10.7520 O.2   141  GLY141     -0.2717
     91  N         21.3760   55.2730    8.8120 N.am  142  GLY142     -0.1942
     92  CA        21.4570   53.8800    8.4080 C.3   142  GLY142      0.2014
     93  C         20.5200   52.9570    9.1640 C.2   142  GLY142      0.2638
     94  O         19.4630   53.3790    9.6310 O.2   142  GLY142     -0.2714
     95  N         20.9140   51.6910    9.2740 N.am  143  ARG143     -0.1977
     96  CA        20.1260   50.6670    9.9590 C.3   143  ARG143      0.1597
     97  C         19.4610   51.1890   11.2230 C.2   143  ARG143      0.2287
     98  O         20.1100   51.7930   12.0720 O.2   143  ARG143     -0.2864
     99  CB        21.0140   49.4680   10.3090 C.3   143  ARG143      0.0334
    100  CG        21.4140   48.6220    9.1120 C.3   143  ARG143      0.0492
    101  CD        22.4780   47.6110    9.4840 C.3   143  ARG143      0.2205
    102  NE        22.0720   46.7900   10.6150 N.pl3 143  ARG143     -0.0865
    103  CZ        22.8030   45.8000   11.1150 C.cat 143  ARG143      0.5346
    104  NH1       23.9790   45.5110   10.5770 N.pl3 143  ARG143      0.1354
    105  NH2       22.3620   45.1060   12.1560 N.pl3 143  ARG143      0.1354
    106  N         20.7510   49.6830   14.5270 N.3   146  GLN146     -0.1231
    107  CA        22.0630   50.2020   14.8920 C.3   146  GLN146      0.1698
    108  C         21.9450   51.5850   15.5210 C.2   146  GLN146      0.2592
    109  O         22.7260   51.9410   16.4000 O.2   146  GLN146     -0.2718
    110  CB        22.9670   50.2600   13.6620 C.3   146  GLN146      0.0381
    111  CG        23.4080   48.8990   13.1750 C.3   146  GLN146      0.0905
    112  CD        24.5240   48.3190   14.0200 C.2   146  GLN146      0.2608
    113  OE1       24.4440   48.2890   15.2480 O.2   146  GLN146     -0.2717
    114  NE2       25.5740   47.8500   13.3620 N.am  146  GLN146     -0.0878
    115  N         20.9690   52.3650   15.0650 N.am  147  ILE147     -0.1980
    116  CA        20.7490   53.6990   15.6080 C.3   147  ILE147      0.1595
    117  C         20.3880   53.5120   17.0740 C.2   147  ILE147      0.2287
    118  O         20.8950   54.2080   17.9480 O.2   147  ILE147     -0.2864
    119  CB        19.5830   54.4180   14.8880 C.3   147  ILE147      0.0276
    120  CG1       19.9140   54.5830   13.4010 C.3   147  ILE147      0.0022
    121  CG2       19.3260   55.7750   15.5390 C.3   147  ILE147      0.0022
    122  CD1       18.8100   55.2240   12.5780 C.3   147  ILE147      0.0001
    123  N         21.0820   50.9060   18.8660 N.3   149  ALA149     -0.1231
    124  CA        22.2430   50.3470   19.5460 C.3   149  ALA149      0.1694
    125  C         23.1210   51.4990   20.0400 C.2   149  ALA149      0.2592
    126  O         23.6070   51.4770   21.1690 O.2   149  ALA149     -0.2718
    127  CB        23.0310   49.4380   18.5940 C.3   149  ALA149      0.0304
    128  N         23.3070   52.5110   19.1980 N.am  150  SER150     -0.1952
    129  CA        24.1220   53.6600   19.5700 C.3   150  SER150      0.1924
    130  C         23.5590   54.3260   20.8190 C.2   150  SER150      0.2314
    131  O         24.2970   54.6840   21.7380 O.2   150  SER150     -0.2863
    132  CB        24.1770   54.6530   18.4140 C.3   150  SER150      0.2116
    133  OG        24.8540   54.0820   17.3050 O.3   150  SER150     -0.2180
@<TRIPOS>BOND
     1    54    53    2
     2    53    52    1
     3    19    20    2
     4    19    18    1
     5    15    14    2
     6    52    51    1
     7    52    55    1
     8    42    41    2
     9    92    91    1
    10    92    93    1
    11    46    45    2
    12    18    17    1
    13    18    21    1
    14    56    55    1
    15    16    14   am
    16    25    23   am
    17    91    89   am
    18    24    23    2
    19    51    45   am
    20    14    13    1
    21    45    44    1
    22   100   101    1
    23   100    99    1
    24    23    22    1
    25    93    95   am
    26    93    94    2
    27    17    11   am
    28    95    96    1
    29    41    40    1
    30    40    39    1
    31    12    11    2
    32   101   102    1
    33    21    22    1
    34    11    10    1
    35    44    43    1
    36    44    47    1
    37    96    99    1
    38    96    97    1
    39    89    88    1
    40    89    90    2
    41    13    10    1
    42    10     9    1
    43    88    87    1
    44   104   103    1
    45    47    48    1
    46    39    33   am
    47   102   103    2
    48    34    33    2
    49    37    36   ar
    50    49    48   ar
    51    48    50   ar
    52   103   105    1
    53     4     3    2
    54    33    32    1
    55    97    98    2
    56     9     3   am
    57    36    38   ar
    58    36    35    1
    59     3     2    1
    60    32    35    1
    61    32    31    1
    62   122   120    1
    63    29    28    2
    64   111   110    1
    65   111   112    1
    66   114   112   am
    67   120   119    1
    68     2     1    1
    69     2     5    1
    70    83    84    1
    71   110   107    1
    72    31    28   am
    73    28    27    1
    74   112   113    2
    75     5     6    1
    76    84    85    1
    77   106   107    1
    78    85    86    2
    79    26    27    1
    80   119   121    1
    81   119   116    1
    82   107   108    1
    83    71    69   ar
    84   115   108   am
    85   115   116    1
    86    27    30    1
    87   108   109    2
    88   116   117    1
    89     6     7    1
    90     6     8    1
    91    69    68    1
    92    69    70   ar
    93    68    65    1
    94   117   118    2
    95   133   132    1
    96    65    64    1
    97    65    66    1
    98    64    59   am
    99   132   129    1
   100   127   124    1
   101    72    66   am
   102    72    73    1
   103    66    67    2
   104   123   124    1
   105    63    61    1
   106    76    73    1
   107    76    77    1
   108    61    58    1
   109    61    62    1
   110   128   129    1
   111   128   125   am
   112    73    74    1
   113    58    59    1
   114    58    57    1
   115    59    60    2
   116   124   125    1
   117   129   130    1
   118    77    78   ar
   119    77    79   ar
   120    78    80   ar
   121    79    81   ar
   122   125   126    2
   123    80    82   ar
   124    81    82   ar
   125    74    75    2
   126   130   131    2
