@<TRIPOS>MOLECULE
tmp/2f17B00.pdb
 124 115 0 0 0
SMALL
GASTEIGER

@<TRIPOS>ATOM
      1  N          5.9050   60.3210    4.0760 N.3    24  LEU24      -0.1231
      2  CA         6.4200   61.3220    5.0010 C.3    24  LEU24       0.1693
      3  C          7.4570   62.1890    4.3000 C.2    24  LEU24       0.2592
      4  O          7.8140   61.9290    3.1530 O.2    24  LEU24      -0.2718
      5  CB         7.0410   60.6400    6.2200 C.3    24  LEU24       0.0284
      6  CG         6.1030   59.7040    6.9870 C.3    24  LEU24       0.0019
      7  CD1        6.8380   59.0960    8.1670 C.3    24  LEU24       0.0001
      8  CD2        4.8780   60.4710    7.4600 C.3    24  LEU24       0.0001
      9  N          7.9440   63.2140    4.9950 N.am   25  ASN25      -0.1960
     10  CA         8.9280   64.1250    4.4230 C.3    25  ASN25       0.1819
     11  C         10.3560   63.5740    4.4280 C.2    25  ASN25       0.2621
     12  O         11.2040   64.0060    5.2130 O.2    25  ASN25      -0.2715
     13  CB         8.8810   65.4730    5.1530 C.3    25  ASN25       0.1195
     14  CG         9.8190   66.4970    4.5440 C.2    25  ASN25       0.2630
     15  OD1        9.9680   66.5650    3.3280 O.2    25  ASN25      -0.2716
     16  ND2       10.4460   67.3080    5.3880 N.am   25  ASN25      -0.0877
     17  N         10.6060   62.6200    3.5350 N.am   26  GLN26      -0.1977
     18  CA        11.9160   61.9920    3.3820 C.3    26  GLN26       0.1601
     19  C         12.0530   61.5090    1.9430 C.2    26  GLN26       0.2287
     20  O         11.0530   61.2610    1.2710 O.2    26  GLN26      -0.2864
     21  CB        12.0630   60.7960    4.3250 C.3    26  GLN26       0.0394
     22  CG        12.3990   61.1610    5.7590 C.3    26  GLN26       0.0908
     23  CD        13.7240   61.8880    5.8720 C.2    26  GLN26       0.2608
     24  OE1       14.7610   61.3850    5.4350 O.2    26  GLN26      -0.2717
     25  NE2       13.6980   63.0780    6.4620 N.am   26  GLN26      -0.0878
     26  N          2.1690   63.6640    4.1630 N.3    45  ALA45      -0.1231
     27  CA         2.2530   64.5170    5.3360 C.3    45  ALA45       0.1694
     28  C          3.1740   65.6880    5.0120 C.2    45  ALA45       0.2592
     29  O          4.3800   65.5140    4.8340 O.2    45  ALA45      -0.2718
     30  CB         2.7850   63.7270    6.5250 C.3    45  ALA45       0.0304
     31  N          2.5830   66.8740    4.9130 N.am   46  ASP46      -0.1960
     32  CA         3.3100   68.1000    4.6100 C.3    46  ASP46       0.1840
     33  C          4.3910   67.9020    3.5420 C.2    46  ASP46       0.2622
     34  O          4.0820   67.6800    2.3670 O.2    46  ASP46      -0.2715
     35  CB         3.9350   68.6580    5.8930 C.3    46  ASP46       0.1450
     36  CG         4.2510   70.1410    5.7920 C.2    46  ASP46       0.3671
     37  OD1        4.3080   70.6560    4.6560 O.co2  46  ASP46      -0.2456
     38  OD2        4.4480   70.7930    6.8390 O.co2  46  ASP46      -0.2456
     39  N          5.6500   67.9830    3.9690 N.am   47  GLY47      -0.1954
     40  CA         6.7840   67.8310    3.0720 C.3    47  GLY47       0.1869
     41  C          6.7370   66.6100    2.1740 C.2    47  GLY47       0.2309
     42  O          7.2890   66.6270    1.0710 O.2    47  GLY47      -0.2863
     43  N          0.5880   71.1120    7.4560 N.3    71  ASP71      -0.1239
     44  CA         0.6030   72.4290    8.0140 C.3    71  ASP71       0.1674
     45  C          1.3870   73.3230    7.1940 C.2    71  ASP71       0.2266
     46  O          1.8630   74.3940    7.5680 O.2    71  ASP71      -0.2867
     47  CB         0.9110   72.3430    9.5340 C.3    71  ASP71       0.1410
     48  CG         2.3740   72.4480    9.9180 C.2    71  ASP71       0.3668
     49  OD1        2.6030   72.5140   11.1660 O.co2  71  ASP71      -0.2456
     50  OD2        3.2520   72.4640    9.0660 O.co2  71  ASP71      -0.2456
     51  N          6.0720   73.1960    4.9150 N.3    74  SER74      -0.1217
     52  CA         7.0910   72.4090    4.2320 C.3    74  SER74       0.1889
     53  C          6.7210   72.2730    2.7540 C.2    74  SER74       0.2288
     54  O          7.5930   72.2830    1.8840 O.2    74  SER74      -0.2866
     55  CB         7.2220   71.0230    4.8720 C.3    74  SER74       0.2089
     56  OG         7.9550   71.0790    6.0840 O.3    74  SER74      -0.2183
     57  N          2.8250   65.9610   15.5990 N.3    99  THR99      -0.1203
     58  CA         3.5010   66.0290   14.3190 C.3    99  THR99       0.1994
     59  C          2.4870   65.9070   13.1920 C.2    99  THR99       0.2618
     60  O          1.3440   65.4890   13.4080 O.2    99  THR99      -0.2717
     61  CB         4.5780   64.9190   14.1940 C.3    99  THR99       0.1784
     62  OG1        3.9540   63.6320   14.1180 O.3    99  THR99      -0.2211
     63  CG2        5.5060   64.9610   15.4060 C.3    99  THR99       0.0376
     64  N          2.9050   66.2880   11.9900 N.am  100  ASP100     -0.1959
     65  CA         2.0310   66.1900   10.8270 C.3   100  ASP100      0.1840
     66  C          1.7730   64.6950   10.4740 C.2   100  ASP100      0.2622
     67  O          0.7960   64.3900    9.7960 O.2   100  ASP100     -0.2715
     68  CB         2.6300   66.9580    9.6180 C.3   100  ASP100      0.1450
     69  CG         2.5810   68.4930    9.7860 C.2   100  ASP100      0.3671
     70  OD1        1.6290   69.0110   10.4180 O.co2 100  ASP100     -0.2456
     71  OD2        3.4990   69.1700    9.2570 O.co2 100  ASP100     -0.2456
     72  N          2.6350   63.7690   10.9470 N.am  101  PHE101     -0.1974
     73  CA         2.4790   62.3040   10.7130 C.3   101  PHE101      0.1639
     74  C          1.3200   61.7600   11.5480 C.2   101  PHE101      0.2290
     75  O          0.4520   61.0510   11.0320 O.2   101  PHE101     -0.2864
     76  CB         3.7850   61.5510   11.0770 C.3   101  PHE101      0.0560
     77  CG         3.6830   60.0340   11.0200 C.ar  101  PHE101     -0.0200
     78  CD1        4.5440   59.2410   11.7880 C.ar  101  PHE101     -0.0042
     79  CD2        2.7630   59.4020   10.2070 C.ar  101  PHE101     -0.0042
     80  CE1        4.4840   57.8600   11.7450 C.ar  101  PHE101     -0.0003
     81  CE2        2.6910   58.0100   10.1550 C.ar  101  PHE101     -0.0003
     82  CZ         3.5560   57.2380   10.9280 C.ar  101  PHE101     -0.0000
     83  N         10.5710   58.5830    7.6450 N.3   127  GLY127     -0.1225
     84  CA        10.4400   58.7730    9.0760 C.3   127  GLY127      0.1811
     85  C         11.4990   58.1000    9.9270 C.2   127  GLY127      0.2280
     86  O         11.5140   58.2870   11.1440 O.2   127  GLY127     -0.2866
     87  N         16.7470   64.0270   10.7580 N.3   131  ARG131     -0.1245
     88  CA        16.7360   64.5530   12.1190 C.3   131  ARG131      0.1563
     89  C         16.4430   63.4640   13.1410 C.2   131  ARG131      0.2260
     90  O         15.4840   62.7100   12.9990 O.2   131  ARG131     -0.2867
     91  CB        15.7010   65.6760   12.2190 C.3   131  ARG131      0.0307
     92  CG        16.0910   66.9320   11.4480 C.3   131  ARG131      0.0489
     93  CD        14.9250   67.8940   11.2970 C.3   131  ARG131      0.2205
     94  NE        14.2050   68.0990   12.5510 N.pl3 131  ARG131     -0.0865
     95  CZ        13.2280   68.9840   12.7140 C.cat 131  ARG131      0.5346
     96  NH1       12.8580   69.7550   11.7010 N.pl3 131  ARG131      0.1354
     97  NH2       12.6090   69.0890   13.8820 N.pl3 131  ARG131      0.1354
     98  N         13.4770   63.2440   14.9140 N.3   134  GLN134     -0.1245
     99  CA        12.3860   62.9090   13.9980 C.3   134  GLN134      0.1566
    100  C         12.1190   61.4700   13.9740 C.2   134  GLN134      0.2260
    101  O         11.0240   60.9560   13.8150 O.2   134  GLN134     -0.2867
    102  CB        12.7340   63.3330   12.5840 C.3   134  GLN134      0.0367
    103  CG        12.5970   64.8200   12.3620 C.3   134  GLN134      0.0905
    104  CD        11.1450   65.3030   12.8070 C.2   134  GLN134      0.2608
    105  OE1       10.2960   64.4980   12.8980 O.2   134  GLN134     -0.2717
    106  NE2       10.9830   66.5710   13.0480 N.am  134  GLN134     -0.0878
    107  N         10.1300   60.8230   17.0290 N.3   137  ALA137     -0.1231
    108  CA         8.7430   61.2520   16.8950 C.3   137  ALA137      0.1694
    109  C          7.9650   60.1610   16.1700 C.2   137  ALA137      0.2592
    110  O          6.8440   59.8200   16.5580 O.2   137  ALA137     -0.2718
    111  CB         8.6630   62.5690   16.1270 C.3   137  ALA137      0.0304
    112  N          8.5700   59.5970   15.1290 N.am  138  SER138     -0.1952
    113  CA         7.9300   58.5310   14.3610 C.3   138  SER138      0.1924
    114  C          7.5870   57.3720   15.2820 C.2   138  SER138      0.2314
    115  O          6.4840   56.8320   15.2390 O.2   138  SER138     -0.2863
    116  CB         8.8560   58.0350   13.2500 C.3   138  SER138      0.2116
    117  OG         9.2050   59.0850   12.3650 O.3   138  SER138     -0.2180
    118  N          4.7480   58.2100   17.3950 N.3   141  THR141     -0.1218
    119  CA         3.4780   58.2020   16.6810 C.3   141  THR141      0.1862
    120  C          2.8690   56.8050   16.7600 C.2   141  THR141      0.2287
    121  O          1.6540   56.6570   16.9150 O.2   141  THR141     -0.2866
    122  CB         3.6510   58.5900   15.1930 C.3   141  THR141      0.1770
    123  OG1        4.0410   59.9640   15.1010 O.3   141  THR141     -0.2211
    124  CG2        2.3520   58.3930   14.4310 C.3   141  THR141      0.0375
@<TRIPOS>BOND
     1    42    41    2
     2    20    19    2
     3    54    53    2
     4    19    18    1
     5    41    40    1
     6    34    33    2
     7    53    52    1
     8    40    39    1
     9     4     3    2
    10    15    14    2
    11    18    17    1
    12    18    21    1
    13    17    11   am
    14    33    39   am
    15    33    32    1
    16     1     2    1
    17    26    27    1
    18    52    55    1
    19    52    51    1
    20     3     9   am
    21     3     2    1
    22    21    22    1
    23    10    11    1
    24    10     9    1
    25    10    13    1
    26    11    12    2
    27    14    13    1
    28    14    16   am
    29    32    31    1
    30    32    35    1
    31    37    36   ar
    32    29    28    2
    33    55    56    1
    34    31    28   am
    35     2     5    1
    36    28    27    1
    37    27    30    1
    38    24    23    2
    39    22    23    1
    40    36    35    1
    41    36    38   ar
    42    23    25   am
    43     5     6    1
    44     6     8    1
    45     6     7    1
    46    45    46    2
    47    45    44    1
    48    43    44    1
    49    83    84    1
    50    44    47    1
    51    50    48   ar
    52    84    85    1
    53    71    69   ar
    54    47    48    1
    55    68    69    1
    56    68    65    1
    57    69    70   ar
    58    67    66    2
    59    48    49   ar
    60    85    86    2
    61    81    79   ar
    62    81    82   ar
    63    79    77   ar
    64    66    65    1
    65    66    72   am
    66    73    72    1
    67    73    76    1
    68    73    74    1
    69    87    88    1
    70    65    64    1
    71    82    80   ar
    72    77    76    1
    73    77    78   ar
    74    75    74    2
    75    93    92    1
    76    93    94    1
    77    92    91    1
    78    96    95    1
    79    80    78   ar
    80    64    59   am
    81    88    91    1
    82    88    89    1
    83   103   102    1
    84   103   104    1
    85   117   116    1
    86    94    95    2
    87   102    99    1
    88    95    97    1
    89   104   105    2
    90   104   106   am
    91    90    89    2
    92    59    60    2
    93    59    58    1
    94   116   113    1
    95   101   100    2
    96   100    99    1
    97    99    98    1
    98    62    61    1
    99    61    58    1
   100    61    63    1
   101    58    57    1
   102   113   112    1
   103   113   114    1
   104   124   122    1
   105   123   122    1
   106   112   109   am
   107   122   119    1
   108   115   114    2
   109   111   108    1
   110   109   110    2
   111   109   108    1
   112   119   120    1
   113   119   118    1
   114   120   121    2
   115   108   107    1
