@<TRIPOS>MOLECULE
tmp/2f17A00.pdb
 101 96 0 0 0
SMALL
GASTEIGER

@<TRIPOS>ATOM
      1  N         35.7210   44.1700   15.1130 N.3    83  ASP83      -0.1239
      2  CA        35.8570   42.7410   14.9250 C.3    83  ASP83       0.1674
      3  C         36.2850   42.4100   13.5100 C.2    83  ASP83       0.2266
      4  O         36.4100   41.2470   13.1480 O.2    83  ASP83      -0.2867
      5  CB        34.5680   42.0090   15.3060 C.3    83  ASP83       0.1410
      6  CG        33.4110   42.3850   14.4320 C.2    83  ASP83       0.3668
      7  OD1       33.5700   43.3360   13.6450 O.co2  83  ASP83      -0.2456
      8  OD2       32.3470   41.7390   14.5330 O.co2  83  ASP83      -0.2456
      9  N         34.6890   42.6670   10.5810 N.3    85  ASP85      -0.1225
     10  CA        33.6030   42.0860    9.7430 C.3    85  ASP85       0.1805
     11  C         33.1070   43.2430    8.9810 C.2    85  ASP85       0.2598
     12  O         31.9520   43.3440    8.5610 O.2    85  ASP85      -0.2718
     13  CB        32.4950   41.3260   10.5830 C.3    85  ASP85       0.1424
     14  CG        31.3100   42.1850   11.0920 C.2    85  ASP85       0.3668
     15  OD1       31.3180   43.4160   11.0290 O.co2  85  ASP85      -0.2456
     16  OD2       30.3470   41.5280   11.6000 O.co2  85  ASP85      -0.2456
     17  N         34.0330   44.1680    8.8260 N.am   86  SER86      -0.1952
     18  CA        33.6800   45.3190    8.0940 C.3    86  SER86       0.1924
     19  C         34.8560   45.9820    7.4210 C.2    86  SER86       0.2314
     20  O         34.7240   46.4140    6.2760 O.2    86  SER86      -0.2863
     21  CB        32.9300   46.2950    9.0000 C.3    86  SER86       0.2116
     22  OG        31.5600   46.3670    8.6370 O.3    86  SER86      -0.2180
     23  N         33.5670   39.6930   21.0430 N.3   107  ASP107     -0.1225
     24  CA        32.2880   39.7320   21.7590 C.3   107  ASP107      0.1805
     25  C         31.0640   40.0090   20.8820 C.2   107  ASP107      0.2598
     26  O         30.8970   41.1160   20.3660 O.2   107  ASP107     -0.2718
     27  CB        32.3350   40.7780   22.8740 C.3   107  ASP107      0.1424
     28  CG        31.2190   40.6010   23.8900 C.2   107  ASP107      0.3668
     29  OD1       30.1260   40.1250   23.5110 O.co2 107  ASP107     -0.2456
     30  OD2       31.4340   40.9500   25.0690 O.co2 107  ASP107     -0.2456
     31  N         30.2060   39.0010   20.7320 N.am  108  GLN108     -0.1965
     32  CA        28.9930   39.1370   19.9300 C.3   108  GLN108      0.1733
     33  C         27.7930   39.5850   20.7550 C.2   108  GLN108      0.2616
     34  O         26.6580   39.5130   20.2920 O.2   108  GLN108     -0.2715
     35  CB        28.6570   37.8190   19.2240 C.3   108  GLN108      0.0408
     36  CG        29.5630   37.5190   18.0460 C.3   108  GLN108      0.0908
     37  CD        29.6300   38.6800   17.0710 C.2   108  GLN108      0.2608
     38  OE1       28.6830   38.9410   16.3240 O.2   108  GLN108     -0.2717
     39  NE2       30.7500   39.3970   17.0840 N.am  108  GLN108     -0.0878
     40  N         28.0480   40.0360   21.9790 N.am  109  ASP109     -0.1957
     41  CA        26.9880   40.5130   22.8650 C.3   109  ASP109      0.1840
     42  C         27.0460   42.0280   22.9610 C.2   109  ASP109      0.2622
     43  O         26.1840   42.6570   23.5700 O.2   109  ASP109     -0.2715
     44  CB        27.1470   39.9310   24.2730 C.3   109  ASP109      0.1450
     45  CG        26.5880   38.5280   24.3970 C.2   109  ASP109      0.3671
     46  OD1       26.6760   37.9600   25.5080 O.co2 109  ASP109     -0.2456
     47  OD2       26.0610   37.9940   23.3960 O.co2 109  ASP109     -0.2456
     48  N         28.0760   42.6040   22.3560 N.am  110  HIS110     -0.1959
     49  CA        28.2750   44.0400   22.3810 C.3   110  HIS110      0.1787
     50  C         28.7300   44.5500   21.0220 C.2   110  HIS110      0.2621
     51  O         29.4750   43.8750   20.3100 O.2   110  HIS110     -0.2715
     52  CB        29.3130   44.3870   23.4470 C.3   110  HIS110      0.0785
     53  CG        28.9230   43.9520   24.8230 C.ar  110  HIS110      0.0821
     54  ND1       27.9410   44.5860   25.5540 N.ar  110  HIS110     -0.2267
     55  CD2       29.3490   42.9160   25.5840 C.ar  110  HIS110      0.1154
     56  CE1       27.7790   43.9590   26.7050 C.ar  110  HIS110      0.1986
     57  NE2       28.6200   42.9410   26.7480 N.ar  110  HIS110     -0.2212
     58  N         28.2670   45.7440   20.6660 N.am  111  THR111     -0.1937
     59  CA        28.6210   46.3580   19.3990 C.3   111  THR111      0.2028
     60  C         30.0650   46.8300   19.4330 C.2   111  THR111      0.2642
     61  O         30.6540   46.9810   20.5050 O.2   111  THR111     -0.2714
     62  CB        27.7240   47.5700   19.0980 C.3   111  THR111      0.1808
     63  OG1       27.8510   48.5320   20.1540 O.3   111  THR111     -0.2208
     64  CG2       26.2680   47.1380   18.9670 C.3   111  THR111      0.0379
     65  N         30.6350   47.0630   18.2550 N.am  112  ASP112     -0.1971
     66  CA        32.0090   47.5270   18.1740 C.3   112  ASP112      0.1709
     67  C         32.1420   48.9120   18.7870 C.2   112  ASP112      0.2293
     68  O         33.2000   49.2700   19.2980 O.2   112  ASP112     -0.2864
     69  CB        32.4870   47.5470   16.7210 C.3   112  ASP112      0.1436
     70  CG        32.7440   46.1530   16.1720 C.2   112  ASP112      0.3671
     71  OD1       33.3940   45.3470   16.8730 O.co2 112  ASP112     -0.2456
     72  OD2       32.3130   45.8650   15.0370 O.co2 112  ASP112     -0.2456
     73  N         32.5060   48.3560   22.5570 N.3   115  LYS115     -0.1245
     74  CA        33.8250   47.7730   22.7670 C.3   115  LYS115      0.1561
     75  C         34.9360   48.7750   22.4790 C.2   115  LYS115      0.2260
     76  O         35.9750   48.7730   23.1400 O.2   115  LYS115     -0.2867
     77  CB        33.9890   46.5270   21.8940 C.3   115  LYS115      0.0271
     78  CG        33.3490   45.2860   22.5000 C.3   115  LYS115      0.0035
     79  CD        32.3790   44.6020   21.5530 C.3   115  LYS115      0.0206
     80  CE        33.0570   44.1460   20.2730 C.3   115  LYS115      0.1093
     81  NZ        32.1370   43.3320   19.4290 N.3   115  LYS115     -0.1314
     82  N         20.9140   51.6910    9.2740 N.3   143  ARG143     -0.1245
     83  CA        20.1260   50.6670    9.9590 C.3   143  ARG143      0.1563
     84  C         19.4610   51.1890   11.2230 C.2   143  ARG143      0.2260
     85  O         20.1100   51.7930   12.0720 O.2   143  ARG143     -0.2867
     86  CB        21.0140   49.4680   10.3090 C.3   143  ARG143      0.0307
     87  CG        21.4140   48.6220    9.1120 C.3   143  ARG143      0.0489
     88  CD        22.4780   47.6110    9.4840 C.3   143  ARG143      0.2205
     89  NE        22.0720   46.7900   10.6150 N.pl3 143  ARG143     -0.0865
     90  CZ        22.8030   45.8000   11.1150 C.cat 143  ARG143      0.5346
     91  NH1       23.9790   45.5110   10.5770 N.pl3 143  ARG143      0.1354
     92  NH2       22.3620   45.1060   12.1560 N.pl3 143  ARG143      0.1354
     93  N         20.7510   49.6830   14.5270 N.3   146  GLN146     -0.1245
     94  CA        22.0630   50.2020   14.8920 C.3   146  GLN146      0.1566
     95  C         21.9450   51.5850   15.5210 C.2   146  GLN146      0.2260
     96  O         22.7260   51.9410   16.4000 O.2   146  GLN146     -0.2867
     97  CB        22.9670   50.2600   13.6620 C.3   146  GLN146      0.0367
     98  CG        23.4080   48.8990   13.1750 C.3   146  GLN146      0.0905
     99  CD        24.5240   48.3190   14.0200 C.2   146  GLN146      0.2608
    100  OE1       24.4440   48.2890   15.2480 O.2   146  GLN146     -0.2717
    101  NE2       25.5740   47.8500   13.3620 N.am  146  GLN146     -0.0878
@<TRIPOS>BOND
     1    20    19    2
     2    19    18    1
     3    18    17    1
     4    18    21    1
     5    12    11    2
     6    22    21    1
     7    17    11   am
     8    11    10    1
     9    87    88    1
    10    87    86    1
    11    82    83    1
    12    88    89    1
    13    10     9    1
    14    10    13    1
    15    83    86    1
    16    83    84    1
    17    91    90    1
    18    13    14    1
    19    89    90    2
    20    15    14   ar
    21    14    16   ar
    22    90    92    1
    23    84    85    2
    24     4     3    2
    25    98    97    1
    26    98    99    1
    27   101    99   am
    28     3     2    1
    29     7     6   ar
    30    97    94    1
    31    99   100    2
    32     6     8   ar
    33     6     5    1
    34    93    94    1
    35    94    95    1
    36     2     1    1
    37     2     5    1
    38    72    70   ar
    39    95    96    2
    40    70    69    1
    41    70    71   ar
    42    38    37    2
    43    69    66    1
    44    37    39   am
    45    37    36    1
    46    36    35    1
    47    66    65    1
    48    66    67    1
    49    65    60   am
    50    67    68    2
    51    64    62    1
    52    62    59    1
    53    62    63    1
    54    35    32    1
    55    59    60    1
    56    59    58    1
    57    81    80    1
    58    60    61    2
    59    32    31    1
    60    32    33    1
    61    80    79    1
    62    34    33    2
    63    51    50    2
    64    26    25    2
    65    58    50   am
    66    31    25   am
    67    33    40   am
    68    25    24    1
    69    50    49    1
    70    23    24    1
    71    79    78    1
    72    24    27    1
    73    77    78    1
    74    77    74    1
    75    40    41    1
    76    48    49    1
    77    48    42   am
    78    49    52    1
    79    75    74    1
    80    75    76    2
    81    73    74    1
    82    41    42    1
    83    41    44    1
    84    27    28    1
    85    42    43    2
    86    47    45   ar
    87    52    53    1
    88    29    28   ar
    89    28    30   ar
    90    44    45    1
    91    45    46   ar
    92    53    54   ar
    93    53    55   ar
    94    54    56   ar
    95    55    57   ar
    96    56    57   ar
