@<TRIPOS>MOLECULE
tmp/2f1gA00.pdb
 154 150 0 0 0
SMALL
GASTEIGER

@<TRIPOS>ATOM
      1  N         10.8770   42.9100    8.6780 N.3    22  GLN22      -0.1231
      2  CA        12.0930   43.3870    9.3510 C.3    22  GLN22       0.1698
      3  C         12.7550   44.5940    8.6520 C.2    22  GLN22       0.2592
      4  O         13.5670   45.2780    9.2400 O.2    22  GLN22      -0.2718
      5  CB        13.0820   42.2470    9.5220 C.3    22  GLN22       0.0381
      6  CG        13.7730   41.8190    8.2590 C.3    22  GLN22       0.0905
      7  CD        14.6630   40.6180    8.4900 C.2    22  GLN22       0.2608
      8  OE1       14.2020   39.4720    8.6880 O.2    22  GLN22      -0.2717
      9  NE2       15.9510   40.8640    8.4590 N.am   22  GLN22      -0.0878
     10  N         12.4060   44.8430    7.4020 N.am   23  GLY23      -0.1957
     11  CA        13.0340   45.9280    6.6520 C.3    23  GLY23       0.1869
     12  C         14.5220   45.7340    6.5480 C.2    23  GLY23       0.2309
     13  O         15.0080   44.6080    6.4920 O.2    23  GLY23      -0.2863
     14  N         18.8400   43.5730   10.2400 N.3    26  GLY26      -0.1225
     15  CA        19.0500   42.1310   10.2560 C.3    26  GLY26       0.1811
     16  C         18.5900   41.4810   11.5380 C.2    26  GLY26       0.2280
     17  O         19.3450   40.7940   12.1990 O.2    26  GLY26      -0.2866
     18  N         16.2760   39.2110   12.0190 N.3    28  CYS28      -0.1221
     19  CA        15.5390   37.9540   11.8520 C.3    28  CYS28       0.1808
     20  C         15.6020   37.0610   13.0890 C.2    28  CYS28       0.2601
     21  O         14.6470   36.3760   13.4220 O.2    28  CYS28      -0.2717
     22  CB        16.0540   37.2040   10.6200 C.3    28  CYS28       0.0970
     23  SG        17.7860   36.9050   10.6090 S.3    28  CYS28      -0.0800
     24  N         16.7550   37.0550   13.7410 N.am   29  TRP29      -0.1976
     25  CA        16.9860   36.2420   14.9170 C.3    29  TRP29       0.1640
     26  C         15.9900   36.6170   16.0070 C.2    29  TRP29       0.2290
     27  O         15.4980   35.7450   16.6990 O.2    29  TRP29      -0.2864
     28  CB        18.4110   36.4190   15.4010 C.3    29  TRP29       0.0576
     29  CG        18.7740   37.8660   15.7110 C.ar   29  TRP29       0.0006
     30  CD1       19.1500   38.8120   14.8080 C.ar   29  TRP29       0.0946
     31  CD2       18.7840   38.5130   16.9920 C.ar   29  TRP29       0.0152
     32  NE1       19.3860   39.9900   15.4310 N.ar   29  TRP29      -0.2442
     33  CE2       19.1820   39.8480   16.7740 C.ar   29  TRP29       0.0810
     34  CE3       18.4890   38.1000   18.2980 C.ar   29  TRP29       0.0012
     35  CZ2       19.3040   40.7840   17.8120 C.ar   29  TRP29       0.0191
     36  CZ3       18.6080   39.0230   19.3310 C.ar   29  TRP29       0.0001
     37  CH2       19.0310   40.3620   19.0760 C.ar   29  TRP29       0.0015
     38  N         26.0930   38.2600   23.0350 N.3    65  GLY65      -0.1225
     39  CA        26.7890   38.0800   21.7610 C.3    65  GLY65       0.1811
     40  C         26.0030   38.5480   20.5550 C.2    65  GLY65       0.2280
     41  O         26.2950   38.1640   19.4240 O.2    65  GLY65      -0.2866
     42  N         24.1800   41.5930   18.0230 N.3    67  LYS67      -0.1245
     43  CA        24.5630   42.8510   17.4410 C.3    67  LYS67       0.1561
     44  C         23.3860   43.5790   16.7600 C.2    67  LYS67       0.2260
     45  O         23.5610   44.2790   15.7470 O.2    67  LYS67      -0.2867
     46  CB        25.6710   42.5830   16.4430 C.3    67  LYS67       0.0271
     47  CG        26.9760   42.2100   17.0830 C.3    67  LYS67       0.0035
     48  CD        28.0630   42.1590   16.0020 C.3    67  LYS67       0.0206
     49  CE        27.9990   40.8550   15.2420 C.3    67  LYS67       0.1093
     50  NZ        28.4100   40.9300   13.7630 N.3    67  LYS67      -0.1314
     51  N         20.7380   45.0030   14.6240 N.3    69  CYS69      -0.1221
     52  CA        20.4800   44.9230   13.1740 C.3    69  CYS69       0.1808
     53  C         21.5570   44.1720   12.3970 C.2    69  CYS69       0.2601
     54  O         21.3650   43.8570   11.2350 O.2    69  CYS69      -0.2717
     55  CB        20.2580   46.3200   12.5800 C.3    69  CYS69       0.0970
     56  SG        18.7510   47.0820   13.1640 S.3    69  CYS69      -0.0800
     57  N         22.6780   43.8620   13.0360 N.am   70  ASN70      -0.1960
     58  CA        23.7560   43.1460   12.3880 C.3    70  ASN70       0.1819
     59  C         23.8870   41.7120   12.8540 C.2    70  ASN70       0.2622
     60  O         24.9130   41.0820   12.6330 O.2    70  ASN70      -0.2715
     61  CB        25.0710   43.8960   12.6050 C.3    70  ASN70       0.1195
     62  CG        25.1450   45.1690   11.7700 C.2    70  ASN70       0.2630
     63  OD1       24.9690   45.1400   10.5570 O.2    70  ASN70      -0.2716
     64  ND2       25.3700   46.2750   12.4190 N.am   70  ASN70      -0.0877
     65  N         22.8530   41.1820   13.4980 N.am   71  GLY71      -0.1940
     66  CA        22.7970   39.7620   13.7240 C.3    71  GLY71       0.2014
     67  C         22.7200   39.4220   15.1740 C.2    71  GLY71       0.2639
     68  O         23.0340   40.2340   16.0350 O.2    71  GLY71      -0.2714
     69  N         22.2550   38.2170   15.4290 N.am   72  GLY72      -0.1939
     70  CA        22.2100   37.6790   16.7720 C.3    72  GLY72       0.2014
     71  C         21.7240   36.2550   16.7580 C.2    72  GLY72       0.2639
     72  O         21.5660   35.6410   15.6850 O.2    72  GLY72      -0.2714
     73  N         21.4860   35.7340   17.9510 N.am   73  PHE73      -0.1959
     74  CA        21.1100   34.3650   18.1380 C.3    73  PHE73       0.1771
     75  C         19.7780   34.2910   18.8340 C.2    73  PHE73       0.2619
     76  O         19.4980   35.0670   19.7760 O.2    73  PHE73      -0.2715
     77  CB        22.1310   33.6410   19.0130 C.3    73  PHE73       0.0574
     78  CG        23.5130   33.6870   18.4720 C.ar   73  PHE73      -0.0200
     79  CD1       23.8510   32.9390   17.3580 C.ar   73  PHE73      -0.0042
     80  CD2       24.4760   34.5010   19.0650 C.ar   73  PHE73      -0.0042
     81  CE1       25.1470   32.9940   16.8230 C.ar   73  PHE73      -0.0003
     82  CE2       25.7830   34.5600   18.5610 C.ar   73  PHE73      -0.0003
     83  CZ        26.1230   33.8090   17.4340 C.ar   73  PHE73      -0.0000
     84  N         18.9850   33.3240   18.3990 N.am   74  MET74      -0.1977
     85  CA        17.7070   33.0670   19.0170 C.3    74  MET74       0.1605
     86  C         17.8820   32.5060   20.4090 C.2    74  MET74       0.2287
     87  O         17.1500   32.9110   21.3170 O.2    74  MET74      -0.2864
     88  CB        16.8630   32.1170   18.1790 C.3    74  MET74       0.0413
     89  CG        16.3830   32.7070   16.8880 C.3    74  MET74       0.0598
     90  SD        17.4890   32.3570   15.4970 S.3    74  MET74      -0.1393
     91  CE        17.1640   30.6380   15.2710 C.3    74  MET74       0.0692
     92  N         17.4970   28.3910   11.9720 N.3   140  GLY140     -0.1225
     93  CA        18.2240   29.1900   10.9840 C.3   140  GLY140      0.1811
     94  C         18.1870   28.4180    9.6700 C.2   140  GLY140      0.2280
     95  O         18.1800   27.1960    9.6770 O.2   140  GLY140     -0.2866
     96  N         19.4500   31.2120    3.5310 N.3   143  ALA143     -0.1245
     97  CA        18.5290   32.0070    2.7180 C.3   143  ALA143      0.1562
     98  C         19.2940   32.9430    1.7880 C.2   143  ALA143      0.2260
     99  O         18.7660   33.9570    1.3790 O.2   143  ALA143     -0.2867
    100  CB        17.6060   32.7860    3.6120 C.3   143  ALA143      0.0290
    101  N         23.8800   28.2240    7.6770 N.3   165  VAL165     -0.1231
    102  CA        22.6550   28.9960    7.8510 C.3   165  VAL165      0.1692
    103  C         22.9660   30.4520    8.1530 C.2   165  VAL165      0.2592
    104  O         23.9540   30.7530    8.8070 O.2   165  VAL165     -0.2718
    105  CB        21.7150   28.3700    8.9290 C.3   165  VAL165      0.0266
    106  CG1       21.4870   26.9270    8.6060 C.3   165  VAL165      0.0020
    107  CG2       22.2630   28.5200   10.3540 C.3   165  VAL165      0.0020
    108  N         22.1250   31.3490    7.6610 N.am  166  ASN166     -0.1960
    109  CA        22.3480   32.7610    7.8230 C.3   166  ASN166      0.1819
    110  C         21.1190   33.5710    8.2450 C.2   166  ASN166      0.2621
    111  O         21.2430   34.7650    8.4700 O.2   166  ASN166     -0.2715
    112  CB        22.8870   33.3420    6.5070 C.3   166  ASN166      0.1195
    113  CG        21.8100   33.4920    5.4490 C.2   166  ASN166      0.2630
    114  OD1       20.9400   32.6360    5.3130 O.2   166  ASN166     -0.2716
    115  ND2       21.8530   34.6110    4.7030 N.am  166  ASN166     -0.0877
    116  N         19.9490   32.9440    8.3330 N.am  167  HIS167     -0.1959
    117  CA        18.7070   33.6650    8.4750 C.3   167  HIS167      0.1787
    118  C         17.7960   32.9600    9.4630 C.2   167  HIS167      0.2620
    119  O         17.4360   31.8240    9.2470 O.2   167  HIS167     -0.2715
    120  CB        18.0500   33.7550    7.0960 C.3   167  HIS167      0.0785
    121  CG        16.7790   34.5400    7.0770 C.ar  167  HIS167      0.0821
    122  ND1       16.6920   35.8270    7.5510 N.ar  167  HIS167     -0.2267
    123  CD2       15.5500   34.2240    6.6180 C.ar  167  HIS167      0.1154
    124  CE1       15.4580   36.2650    7.3980 C.ar  167  HIS167      0.1986
    125  NE2       14.7460   35.3110    6.8330 N.ar  167  HIS167     -0.2212
    126  N         17.4370   33.6450   10.5490 N.am  168  GLY168     -0.1954
    127  CA        16.5540   33.0820   11.5440 C.3   168  GLY168      0.1869
    128  C         15.1200   33.1330   11.0720 C.2   168  GLY168      0.2309
    129  O         14.6500   34.1780   10.6490 O.2   168  GLY168     -0.2863
    130  N          9.9440   38.8690    6.3290 N.3   189  TRP189     -0.1241
    131  CA        10.0860   39.8460    5.2730 C.3   189  TRP189      0.1605
    132  C          8.7220   40.3120    4.7870 C.2   189  TRP189      0.2264
    133  O          8.5640   40.6490    3.6030 O.2   189  TRP189     -0.2867
    134  CB        10.8670   39.2590    4.0880 C.3   189  TRP189      0.0550
    135  CG        12.2480   38.8580    4.4050 C.ar  189  TRP189      0.0003
    136  CD1       12.9420   39.1670    5.5120 C.ar  189  TRP189      0.0946
    137  CD2       13.1200   38.0830    3.5800 C.ar  189  TRP189      0.0152
    138  NE1       14.2020   38.6340    5.4510 N.ar  189  TRP189     -0.2442
    139  CE2       14.3470   37.9780    4.2590 C.ar  189  TRP189      0.0810
    140  CE3       12.9990   37.5000    2.3090 C.ar  189  TRP189      0.0012
    141  CZ2       15.4340   37.2750    3.7380 C.ar  189  TRP189      0.0191
    142  CZ3       14.0900   36.8120    1.7880 C.ar  189  TRP189      0.0001
    143  CH2       15.2770   36.6930    2.5070 C.ar  189  TRP189      0.0015
    144  N         20.1830   24.2110   13.6260 N.3   214  PHE214     -0.1241
    145  CA        20.1660   24.9060   14.9040 C.3   214  PHE214      0.1605
    146  C         18.7680   25.2890   15.3820 C.2   214  PHE214      0.2264
    147  O         18.4210   26.4870   15.4780 O.2   214  PHE214     -0.2867
    148  CB        21.0660   26.1280   14.8290 C.3   214  PHE214      0.0534
    149  CG        22.4700   25.7850   14.4470 C.ar  214  PHE214     -0.0203
    150  CD1       23.3270   25.1850   15.3640 C.ar  214  PHE214     -0.0042
    151  CD2       22.9220   26.0400   13.1700 C.ar  214  PHE214     -0.0042
    152  CE1       24.6200   24.8630   15.0140 C.ar  214  PHE214     -0.0003
    153  CE2       24.2170   25.7350   12.8140 C.ar  214  PHE214     -0.0003
    154  CZ        25.0630   25.1400   13.7280 C.ar  214  PHE214     -0.0000
@<TRIPOS>BOND
     1    99    98    2
     2    98    97    1
     3   142   140   ar
     4   142   143   ar
     5   140   137   ar
     6   143   141   ar
     7    97    96    1
     8    97   100    1
     9   137   139   ar
    10   137   135   ar
    11   133   132    2
    12   141   139   ar
    13   134   135    1
    14   134   131    1
    15   139   138   ar
    16   135   136   ar
    17   115   113   am
    18   132   131    1
    19   131   130    1
    20   114   113    2
    21   113   112    1
    22   138   136   ar
    23    13    12    2
    24   112   109    1
    25    12    11    1
    26   123   125   ar
    27   123   121   ar
    28    11    10    1
    29   125   124   ar
    30   121   120    1
    31   121   122   ar
    32   120   117    1
    33   124   122   ar
    34    10     3   am
    35   108   109    1
    36   108   103   am
    37   101   102    1
    38   109   110    1
    39   102   103    1
    40   102   105    1
    41   103   104    2
    42   110   116   am
    43   110   111    2
    44     6     7    1
    45     6     5    1
    46   116   117    1
    47     9     7   am
    48   117   118    1
    49     7     8    2
    50   106   105    1
    51     3     4    2
    52     3     2    1
    53     1     2    1
    54   105   107    1
    55   119   118    2
    56     2     5    1
    57   118   126   am
    58    94    95    2
    59    94    93    1
    60    14    15    1
    61    15    16    1
    62   126   127    1
    63    63    62    2
    64    23    22    1
    65    22    19    1
    66   129   128    2
    67    93    92    1
    68   128   127    1
    69    54    53    2
    70    16    17    2
    71    62    64   am
    72    62    61    1
    73    19    18    1
    74    19    20    1
    75    58    61    1
    76    58    59    1
    77    58    57    1
    78    53    57   am
    79    53    52    1
    80    55    56    1
    81    55    52    1
    82    60    59    2
    83   153   151   ar
    84   153   154   ar
    85    59    65   am
    86    20    21    2
    87    20    24   am
    88   151   149   ar
    89    52    51    1
    90    65    66    1
    91   144   145    1
    92    66    67    1
    93   154   152   ar
    94    24    25    1
    95    50    49    1
    96   149   148    1
    97   149   150   ar
    98    30    32   ar
    99    30    29   ar
   100   148   145    1
   101   145   146    1
   102    25    28    1
   103    25    26    1
   104   152   150   ar
   105    67    69   am
   106    67    68    2
   107    49    48    1
   108    91    90    1
   109   146   147    2
   110    28    29    1
   111    69    70    1
   112    32    33   ar
   113    90    89    1
   114    72    71    2
   115    29    31   ar
   116    45    44    2
   117    48    47    1
   118    26    27    2
   119    46    47    1
   120    46    43    1
   121    71    70    1
   122    71    73   am
   123    44    43    1
   124    33    31   ar
   125    33    35   ar
   126    81    79   ar
   127    81    83   ar
   128    89    88    1
   129    31    34   ar
   130    79    78   ar
   131    83    82   ar
   132    43    42    1
   133    35    37   ar
   134    73    74    1
   135    74    75    1
   136    74    77    1
   137    88    85    1
   138    34    36   ar
   139    84    75   am
   140    84    85    1
   141    78    77    1
   142    78    80   ar
   143    82    80   ar
   144    75    76    2
   145    85    86    1
   146    37    36   ar
   147    41    40    2
   148    86    87    2
   149    40    39    1
   150    39    38    1
