@<TRIPOS>MOLECULE
tmp/2f1tC01.pdb
 67 62 0 0 0
SMALL
GASTEIGER

@<TRIPOS>ATOM
      1  N         79.4680   44.4460    0.9980 N.3     9  ALA9       -0.1231
      2  CA        80.2360   44.7720    2.1890 C.3     9  ALA9        0.1694
      3  C         79.3920   45.8610    2.7950 C.2     9  ALA9        0.2593
      4  O         78.8130   46.6570    2.0640 O.2     9  ALA9       -0.2718
      5  CB        81.6120   45.2840    1.8170 C.3     9  ALA9        0.0304
      6  N         79.2920   45.8720    4.1160 N.am   10  GLY10      -0.1942
      7  CA        78.4980   46.8770    4.7940 C.3    10  GLY10       0.2014
      8  C         78.4260   46.5520    6.2670 C.2    10  GLY10       0.2639
      9  O         79.1960   45.7290    6.7470 O.2    10  GLY10      -0.2714
     10  N         77.5140   47.1880    6.9960 N.am   11  SER11      -0.1949
     11  CA        77.3820   46.9030    8.4220 C.3    11  SER11       0.1924
     12  C         76.3230   45.8310    8.6810 C.2    11  SER11       0.2314
     13  O         75.3280   45.7180    7.9590 O.2    11  SER11      -0.2863
     14  CB        77.0340   48.1780    9.1920 C.3    11  SER11       0.2116
     15  OG        75.8210   48.7280    8.7300 O.3    11  SER11      -0.2180
     16  N         74.2030   44.6640   11.8850 N.3    13  THR13      -0.1218
     17  CA        73.8580   44.8580   13.2780 C.3    13  THR13       0.1862
     18  C         73.0330   43.6770   13.7840 C.2    13  THR13       0.2287
     19  O         72.0910   43.2440   13.1330 O.2    13  THR13      -0.2866
     20  CB        73.0790   46.1710   13.4790 C.3    13  THR13       0.1770
     21  OG1       73.8570   47.2710   12.9880 O.3    13  THR13      -0.2211
     22  CG2       72.7800   46.3870   14.9580 C.3    13  THR13       0.0375
     23  N         77.2240   45.8070   16.1450 N.3    28  THR28      -0.1218
     24  CA        77.3820   45.9330   14.6960 C.3    28  THR28       0.1862
     25  C         78.7910   45.5230   14.2940 C.2    28  THR28       0.2287
     26  O         79.7490   45.7760   15.0170 O.2    28  THR28      -0.2866
     27  CB        77.1400   47.3690   14.1990 C.3    28  THR28       0.1770
     28  OG1       75.7880   47.7350   14.4820 O.3    28  THR28      -0.2211
     29  CG2       77.3760   47.4690   12.6970 C.3    28  THR28       0.0375
     30  N         81.4300   44.3030   10.5610 N.3    30  LEU30      -0.1245
     31  CA        81.6000   44.3840    9.1250 C.3    30  LEU30       0.1561
     32  C         80.9290   43.1310    8.5890 C.2    30  LEU30       0.2260
     33  O         81.3380   42.0120    8.9150 O.2    30  LEU30      -0.2867
     34  CB        83.0810   44.3510    8.7470 C.3    30  LEU30       0.0270
     35  CG        83.5220   44.8130    7.3560 C.3    30  LEU30       0.0019
     36  CD1       84.6280   43.9060    6.8890 C.3    30  LEU30       0.0001
     37  CD2       82.3860   44.7750    6.3690 C.3    30  LEU30       0.0001
     38  N         79.9820   40.8770    5.3520 N.3    32  LEU32      -0.1245
     39  CA        80.3300   40.6120    3.9590 C.3    32  LEU32       0.1561
     40  C         79.4390   39.4720    3.5200 C.2    32  LEU32       0.2260
     41  O         79.2190   38.5320    4.2770 O.2    32  LEU32      -0.2867
     42  CB        81.7790   40.1590    3.8160 C.3    32  LEU32       0.0270
     43  CG        82.8740   41.2080    3.8910 C.3    32  LEU32       0.0019
     44  CD1       84.2170   40.5080    3.8640 C.3    32  LEU32       0.0001
     45  CD2       82.7310   42.1870    2.7350 C.3    32  LEU32       0.0001
     46  N         73.0030   47.0560    5.9760 N.3   176  PHE176     -0.1227
     47  CA        73.0060   48.1390    5.0000 C.3   176  PHE176      0.1736
     48  C         74.3550   47.9950    4.2970 C.2   176  PHE176      0.2596
     49  O         75.3910   47.9640    4.9550 O.2   176  PHE176     -0.2718
     50  CB        72.9200   49.4910    5.7120 C.3   176  PHE176      0.0547
     51  CG        73.0860   50.6670    4.7930 C.ar  176  PHE176     -0.0202
     52  CD1       72.1390   50.9320    3.8020 C.ar  176  PHE176     -0.0042
     53  CD2       74.2100   51.4870    4.8860 C.ar  176  PHE176     -0.0042
     54  CE1       72.3090   51.9920    2.9140 C.ar  176  PHE176     -0.0003
     55  CE2       74.3930   52.5510    4.0050 C.ar  176  PHE176     -0.0003
     56  CZ        73.4400   52.8040    3.0150 C.ar  176  PHE176     -0.0000
     57  N         74.3600   47.9080    2.9710 N.am  177  SER177     -0.1938
     58  CA        75.6290   47.7040    2.2760 C.3   177  SER177      0.2055
     59  C         75.6610   48.0360    0.7910 C.2   177  SER177      0.2642
     60  O         74.6470   48.3270    0.1770 O.2   177  SER177     -0.2714
     61  CB        76.0510   46.2420    2.4220 C.3   177  SER177      0.2130
     62  OG        75.2990   45.4210    1.5460 O.3   177  SER177     -0.2179
     63  N         76.8540   47.9790    0.2210 N.am  178  ALA178     -0.1977
     64  CA        77.0270   48.2180   -1.1960 C.3   178  ALA178      0.1597
     65  C         77.6550   46.9300   -1.7090 C.2   178  ALA178      0.2287
     66  O         78.2170   46.1570   -0.9230 O.2   178  ALA178     -0.2864
     67  CB        77.9460   49.4000   -1.4380 C.3   178  ALA178      0.0319
@<TRIPOS>BOND
     1    65    64    1
     2    65    66    2
     3    67    64    1
     4    64    63    1
     5    60    59    2
     6    63    59   am
     7    59    58    1
     8     1     2    1
     9    62    61    1
    10     5     2    1
    11     4     3    2
    12     2     3    1
    13    58    61    1
    14    58    57    1
    15    45    43    1
    16     3     6   am
    17    54    56   ar
    18    54    52   ar
    19    57    48   am
    20    56    55   ar
    21    40    39    1
    22    40    41    2
    23    52    51   ar
    24    42    43    1
    25    42    39    1
    26    44    43    1
    27    39    38    1
    28    55    53   ar
    29     6     7    1
    30    48    49    2
    31    48    47    1
    32    51    53   ar
    33    51    50    1
    34     7     8    1
    35    47    50    1
    36    47    46    1
    37     8     9    2
    38     8    10   am
    39    37    35    1
    40    36    35    1
    41    10    11    1
    42    35    34    1
    43    13    12    2
    44    11    12    1
    45    11    14    1
    46    32    33    2
    47    32    31    1
    48    15    14    1
    49    34    31    1
    50    31    30    1
    51    16    17    1
    52    29    27    1
    53    21    20    1
    54    19    18    2
    55    17    20    1
    56    17    18    1
    57    20    22    1
    58    27    28    1
    59    27    24    1
    60    25    24    1
    61    25    26    2
    62    24    23    1
