@<TRIPOS>MOLECULE
tmp/2f1tA04.pdb
 92 92 0 0 0
SMALL
GASTEIGER

@<TRIPOS>ATOM
      1  N         60.8580   62.0310   -9.2480 N.3    42  ILE42      -0.1245
      2  CA        61.4840   62.8550   -8.2350 C.3    42  ILE42       0.1561
      3  C         60.6780   64.1130   -8.0870 C.2    42  ILE42       0.2260
      4  O         60.4280   64.8100   -9.0590 O.2    42  ILE42      -0.2867
      5  CB        62.9320   63.2400   -8.6200 C.3    42  ILE42       0.0252
      6  CG1       63.7900   61.9760   -8.7700 C.3    42  ILE42       0.0019
      7  CG2       63.5320   64.1510   -7.5650 C.3    42  ILE42       0.0019
      8  CD1       65.0520   62.1980   -9.5620 C.3    42  ILE42       0.0001
      9  N         62.2680   65.2330   -0.3310 N.3    76  ALA76      -0.1231
     10  CA        62.6780   64.7640   -1.6420 C.3    76  ALA76       0.1694
     11  C         61.8890   63.4770   -1.7850 C.2    76  ALA76       0.2592
     12  O         61.9360   62.6070   -0.8920 O.2    76  ALA76      -0.2718
     13  CB        64.1590   64.4640   -1.6480 C.3    76  ALA76       0.0304
     14  N         61.1670   63.3470   -2.8960 N.am   77  GLN77      -0.1966
     15  CA        60.3380   62.1650   -3.0860 C.3    77  GLN77       0.1733
     16  C         60.6140   61.3890   -4.3540 C.2    77  GLN77       0.2616
     17  O         61.0850   61.9220   -5.3520 O.2    77  GLN77      -0.2715
     18  CB        58.8470   62.5450   -3.1020 C.3    77  GLN77       0.0408
     19  CG        58.4140   63.6720   -2.1850 C.3    77  GLN77       0.0908
     20  CD        56.9370   64.0110   -2.3640 C.2    77  GLN77       0.2608
     21  OE1       56.0510   63.3030   -1.8690 O.2    77  GLN77      -0.2717
     22  NE2       56.6660   65.0890   -3.0930 N.am   77  GLN77      -0.0878
     23  N         60.2740   60.1130   -4.2870 N.am   78  TRP78      -0.1974
     24  CA        60.3950   59.1890   -5.3950 C.3    78  TRP78       0.1640
     25  C         59.0120   58.5480   -5.6370 C.2    78  TRP78       0.2290
     26  O         58.4950   57.7900   -4.8000 O.2    78  TRP78      -0.2864
     27  CB        61.4230   58.0990   -5.0900 C.3    78  TRP78       0.0576
     28  CG        61.4550   57.1030   -6.1760 C.ar   78  TRP78       0.0006
     29  CD1       60.7800   55.9210   -6.2200 C.ar   78  TRP78       0.0946
     30  CD2       62.0450   57.2790   -7.4650 C.ar   78  TRP78       0.0152
     31  NE1       60.8970   55.3540   -7.4680 N.ar   78  TRP78      -0.2442
     32  CE2       61.6720   56.1700   -8.2500 C.ar   78  TRP78       0.0810
     33  CE3       62.8460   58.2730   -8.0360 C.ar   78  TRP78       0.0012
     34  CZ2       62.0730   56.0270   -9.5780 C.ar   78  TRP78       0.0191
     35  CZ3       63.2420   58.1360   -9.3480 C.ar   78  TRP78       0.0001
     36  CH2       62.8550   57.0190  -10.1090 C.ar   78  TRP78       0.0015
     37  N         57.9810   57.1780   -1.6730 N.3    91  VAL91      -0.1231
     38  CA        58.8000   57.2270   -0.4660 C.3    91  VAL91       0.1692
     39  C         59.5040   58.5700   -0.4590 C.2    91  VAL91       0.2593
     40  O         59.8660   59.0830   -1.5150 O.2    91  VAL91      -0.2718
     41  CB        59.8550   56.0950   -0.4430 C.3    91  VAL91       0.0266
     42  CG1       60.6980   56.2020    0.8120 C.3    91  VAL91       0.0020
     43  CG2       59.1730   54.7370   -0.4820 C.3    91  VAL91       0.0020
     44  N         59.6950   59.1470    0.7240 N.am   92  GLY92      -0.1942
     45  CA        60.3400   60.4430    0.7920 C.3    92  GLY92       0.2014
     46  C         61.1880   60.6710    2.0240 C.2    92  GLY92       0.2639
     47  O         60.8930   60.1630    3.1070 O.2    92  GLY92      -0.2714
     48  N         62.2560   61.4470    1.8450 N.am   93  ALA93      -0.1963
     49  CA        63.1880   61.7730    2.9190 C.3    93  ALA93       0.1728
     50  C         63.3610   63.2830    2.8790 C.2    93  ALA93       0.2617
     51  O         63.2890   63.8950    1.8110 O.2    93  ALA93      -0.2715
     52  CB        64.5260   61.0730    2.6930 C.3    93  ALA93       0.0334
     53  N         63.5740   63.8770    4.0460 N.am   94  GLY94      -0.1940
     54  CA        63.7370   65.3180    4.1270 C.3    94  GLY94       0.2014
     55  C         64.0100   65.7780    5.5510 C.2    94  GLY94       0.2638
     56  O         64.1660   64.9650    6.4730 O.2    94  GLY94      -0.2714
     57  N         64.0470   67.0900    5.7350 N.am   95  ILE95      -0.1977
     58  CA        64.3220   67.6710    7.0400 C.3    95  ILE95       0.1596
     59  C         63.1020   68.3640    7.6340 C.2    95  ILE95       0.2287
     60  O         62.3230   68.9810    6.9120 O.2    95  ILE95      -0.2864
     61  CB        65.4720   68.7070    6.9440 C.3    95  ILE95       0.0276
     62  CG1       65.0410   69.8940    6.0670 C.3    95  ILE95       0.0022
     63  CG2       66.7150   68.0510    6.3670 C.3    95  ILE95       0.0022
     64  CD1       64.8170   69.5560    4.6010 C.3    95  ILE95       0.0001
     65  N         64.9090   70.6750   14.7370 N.3   123  TRP123     -0.1227
     66  CA        65.2420   70.3410   13.3580 C.3   123  TRP123      0.1740
     67  C         65.5410   68.8490   13.3360 C.2   123  TRP123      0.2635
     68  O         66.1030   68.3230   14.2940 O.2   123  TRP123     -0.2714
     69  CB        66.4540   71.1270   12.8940 C.3   123  TRP123      0.0564
     70  CG        66.1890   72.5950   12.7980 C.ar  123  TRP123      0.0003
     71  CD1       66.1320   73.4920   13.8280 C.ar  123  TRP123      0.0946
     72  CD2       65.9110   73.3360   11.6050 C.ar  123  TRP123      0.0152
     73  NE1       65.8360   74.7460   13.3530 N.ar  123  TRP123     -0.2442
     74  CE2       65.6960   74.6830   11.9920 C.ar  123  TRP123      0.0810
     75  CE3       65.8220   72.9950   10.2480 C.ar  123  TRP123      0.0012
     76  CZ2       65.3960   75.6920   11.0700 C.ar  123  TRP123      0.0191
     77  CZ3       65.5250   73.9960    9.3290 C.ar  123  TRP123      0.0001
     78  CH2       65.3150   75.3330    9.7470 C.ar  123  TRP123      0.0015
     79  N         65.1560   68.1510   12.2690 N.am  124  GLY124     -0.1718
     80  CA        65.4150   66.7200   12.2450 C.2   124  GLY124      0.1480
     81  C         65.0930   65.9660   10.9710 C.2   124  GLY124      0.2820
     82  O         64.4060   66.4690   10.0850 O.2   124  GLY124     -0.2669
     83  N         65.6040   64.7410   10.8890 N.am  125  ALA125     -0.1929
     84  CA        65.3850   63.8930    9.7300 C.3   125  ALA125      0.1731
     85  C         63.9150   63.5780    9.6800 C.2   125  ALA125      0.2616
     86  O         63.2510   63.5540   10.7100 O.2   125  ALA125     -0.2715
     87  CB        66.1980   62.6110    9.8540 C.3   125  ALA125      0.0334
     88  N         63.4020   63.3520    8.4770 N.am  126  ALA126     -0.1977
     89  CA        61.9940   63.0280    8.2960 C.3   126  ALA126      0.1597
     90  C         61.8240   62.1410    7.0690 C.2   126  ALA126      0.2287
     91  O         62.5160   62.3140    6.0680 O.2   126  ALA126     -0.2864
     92  CB        61.1810   64.3040    8.1430 C.3   126  ALA126      0.0319
@<TRIPOS>BOND
     1    36    34   ar
     2    36    35   ar
     3    34    32   ar
     4     8     6    1
     5    35    33   ar
     6     1     2    1
     7     4     3    2
     8     6     5    1
     9     5     2    1
    10     5     7    1
    11    32    31   ar
    12    32    30   ar
    13     2     3    1
    14    33    30   ar
    15    31    29   ar
    16    30    28   ar
    17    29    28   ar
    18    28    27    1
    19    25    24    1
    20    25    26    2
    21    24    27    1
    22    24    23    1
    23    17    16    2
    24    16    23   am
    25    16    15    1
    26    18    15    1
    27    18    19    1
    28    22    20   am
    29    15    14    1
    30    14    11   am
    31    20    19    1
    32    20    21    2
    33    11    10    1
    34    11    12    2
    35    37    38    1
    36    13    10    1
    37    10     9    1
    38    40    39    2
    39    43    41    1
    40    38    39    1
    41    38    41    1
    42    39    44   am
    43    41    42    1
    44    44    45    1
    45    45    46    1
    46    51    50    2
    47    48    46   am
    48    48    49    1
    49    46    47    2
    50    52    49    1
    51    50    49    1
    52    50    53   am
    53    53    54    1
    54    54    55    1
    55    64    62    1
    56    55    57   am
    57    55    56    2
    58    57    58    1
    59    62    61    1
    60    91    90    2
    61    63    61    1
    62    60    59    2
    63    61    58    1
    64    58    59    1
    65    90    89    1
    66    92    89    1
    67    89    88    1
    68    88    85   am
    69    77    78   ar
    70    77    75   ar
    71    85    84    1
    72    85    86    2
    73    84    87    1
    74    84    83    1
    75    78    76   ar
    76    82    81    2
    77    75    72   ar
    78    83    81   am
    79    81    80    1
    80    76    74   ar
    81    72    74   ar
    82    72    70   ar
    83    74    73   ar
    84    80    79    2
    85    79    67    1
    86    70    69    1
    87    70    71   ar
    88    69    66    1
    89    67    66    1
    90    67    68    2
    91    73    71   ar
    92    66    65    1
