@<TRIPOS>MOLECULE
tmp/2f1tB01.pdb
 98 97 0 0 0
SMALL
GASTEIGER

@<TRIPOS>ATOM
      1  N         42.0900   46.4500   -9.5960 N.3    42  ILE42      -0.1245
      2  CA        41.0940   46.7190   -8.5790 C.3    42  ILE42       0.1561
      3  C         40.1890   45.5170   -8.4630 C.2    42  ILE42       0.2260
      4  O         39.6130   45.0620   -9.4480 O.2    42  ILE42      -0.2867
      5  CB        40.2290   47.9520   -8.9380 C.3    42  ILE42       0.0252
      6  CG1       41.1220   49.1900   -9.0770 C.3    42  ILE42       0.0019
      7  CG2       39.1670   48.1770   -7.8690 C.3    42  ILE42       0.0019
      8  CD1       40.4670   50.3310   -9.8240 C.3    42  ILE42       0.0001
      9  N         38.6060   46.4380   -0.6780 N.3    76  ALA76      -0.1231
     10  CA        38.9040   47.0220   -1.9730 C.3    76  ALA76       0.1694
     11  C         40.3860   46.7220   -2.1290 C.2    76  ALA76       0.2592
     12  O         41.1860   47.0370   -1.2350 O.2    76  ALA76      -0.2718
     13  CB        38.6740   48.5210   -1.9420 C.3    76  ALA76       0.0304
     14  N         40.7540   46.1150   -3.2530 N.am   77  GLN77      -0.1966
     15  CA        42.1440   45.7540   -3.4540 C.3    77  GLN77       0.1733
     16  C         42.7770   46.3200   -4.7090 C.2    77  GLN77       0.2616
     17  O         42.1010   46.6120   -5.6950 O.2    77  GLN77      -0.2715
     18  CB        42.3090   44.2250   -3.5100 C.3    77  GLN77       0.0408
     19  CG        41.3990   43.4080   -2.6070 C.3    77  GLN77       0.0908
     20  CD        41.5890   41.9210   -2.8120 C.2    77  GLN77       0.2608
     21  OE1       42.5560   41.3370   -2.3260 O.2    77  GLN77      -0.2717
     22  NE2       40.6720   41.3010   -3.5540 N.am   77  GLN77      -0.0878
     23  N         44.1010   46.4400   -4.6430 N.am   78  TRP78      -0.1974
     24  CA        44.9230   46.9030   -5.7450 C.3    78  TRP78       0.1640
     25  C         45.9950   45.8370   -6.0190 C.2    78  TRP78       0.2290
     26  O         46.8820   45.5980   -5.1850 O.2    78  TRP78      -0.2864
     27  CB        45.5890   48.2310   -5.4100 C.3    78  TRP78       0.0576
     28  CG        46.5050   48.6200   -6.4920 C.ar   78  TRP78       0.0006
     29  CD1       47.8430   48.3930   -6.5470 C.ar   78  TRP78       0.0946
     30  CD2       46.1320   49.1480   -7.7640 C.ar   78  TRP78       0.0152
     31  NE1       48.3330   48.7350   -7.7850 N.ar   78  TRP78      -0.2442
     32  CE2       47.2980   49.2040   -8.5520 C.ar   78  TRP78       0.0810
     33  CE3       44.9230   49.5760   -8.3200 C.ar   78  TRP78       0.0012
     34  CZ2       47.2900   49.6710   -9.8700 C.ar   78  TRP78       0.0191
     35  CZ3       44.9190   50.0390   -9.6310 C.ar   78  TRP78       0.0001
     36  CH2       46.0930   50.0810  -10.3870 C.ar   78  TRP78       0.0015
     37  N         47.6590   45.2400   -2.0780 N.3    91  VAL91      -0.1231
     38  CA        47.3250   45.9560   -0.8550 C.3    91  VAL91       0.1692
     39  C         45.8090   46.1590   -0.8370 C.2    91  VAL91       0.2593
     40  O         45.1880   46.3530   -1.8850 O.2    91  VAL91      -0.2718
     41  CB        48.0220   47.3370   -0.7960 C.3    91  VAL91       0.0266
     42  CG1       47.6370   48.0450    0.4770 C.3    91  VAL91       0.0020
     43  CG2       49.5370   47.1740   -0.8480 C.3    91  VAL91       0.0020
     44  N         45.2090   46.1090    0.3470 N.am   92  GLY92      -0.1942
     45  CA        43.7730   46.2820    0.4200 C.3    92  GLY92       0.2014
     46  C         43.2750   46.9700    1.6720 C.2    92  GLY92       0.2638
     47  O         43.8590   46.8390    2.7460 O.2    92  GLY92      -0.2714
     48  N         42.1830   47.7120    1.5140 N.am   93  ALA93      -0.1977
     49  CA        41.5500   48.4400    2.6070 C.3    93  ALA93       0.1597
     50  C         40.0670   48.0880    2.5640 C.2    93  ALA93       0.2287
     51  O         39.5080   47.8590    1.4880 O.2    93  ALA93      -0.2864
     52  CB        41.7420   49.9320    2.4230 C.3    93  ALA93       0.0319
     53  N         42.8980   46.3920    6.8070 N.3   127  GLY127     -0.1210
     54  CA        43.8240   46.4980    5.6950 C.3   127  GLY127      0.1956
     55  C         44.6140   45.2210    5.4840 C.2   127  GLY127      0.2612
     56  O         44.7410   44.4120    6.4000 O.2   127  GLY127     -0.2717
     57  N         45.1610   45.0440    4.2840 N.am  128  GLN128     -0.1965
     58  CA        45.9250   43.8440    3.9760 C.3   128  GLN128      0.1733
     59  C         47.0370   44.0290    2.9510 C.2   128  GLN128      0.2616
     60  O         47.0370   44.9550    2.1410 O.2   128  GLN128     -0.2715
     61  CB        44.9920   42.7510    3.4610 C.3   128  GLN128      0.0408
     62  CG        44.3490   43.1310    2.1480 C.3   128  GLN128      0.0908
     63  CD        43.2340   42.2010    1.7360 C.2   128  GLN128      0.2608
     64  OE1       42.4670   42.5130    0.8220 O.2   128  GLN128     -0.2717
     65  NE2       43.1360   41.0500    2.3980 N.am  128  GLN128     -0.0878
     66  N         47.9740   43.0940    3.0070 N.am  129  VAL129     -0.1977
     67  CA        49.1110   43.0330    2.1150 C.3   129  VAL129      0.1596
     68  C         49.3210   41.5480    1.8700 C.2   129  VAL129      0.2287
     69  O         49.4300   40.7650    2.8140 O.2   129  VAL129     -0.2864
     70  CB        50.3590   43.6110    2.7670 C.3   129  VAL129      0.0276
     71  CG1       51.5690   43.3260    1.9140 C.3   129  VAL129      0.0022
     72  CG2       50.1880   45.0970    2.9410 C.3   129  VAL129      0.0022
     73  N         44.9920   43.1040    9.1830 N.3   147  TYR147     -0.1241
     74  CA        44.9410   43.8040   10.4660 C.3   147  TYR147      0.1605
     75  C         43.5390   44.4210   10.5610 C.2   147  TYR147      0.2264
     76  O         43.1090   45.1440    9.6740 O.2   147  TYR147     -0.2867
     77  CB        45.9990   44.8910   10.5910 C.3   147  TYR147      0.0534
     78  CG        45.9540   45.4810   11.9710 C.ar  147  TYR147     -0.0201
     79  CD1       46.3440   44.7330   13.0810 C.ar  147  TYR147     -0.0009
     80  CD2       45.4160   46.7460   12.1880 C.ar  147  TYR147     -0.0009
     81  CE1       46.1920   45.2310   14.3720 C.ar  147  TYR147      0.0417
     82  CE2       45.2550   47.2540   13.4750 C.ar  147  TYR147      0.0417
     83  CZ        45.6440   46.4940   14.5620 C.ar  147  TYR147      0.1957
     84  OH        45.4820   47.0070   15.8330 O.3   147  TYR147     -0.2866
     85  N         45.8980   40.4840   14.1810 N.3   172  TRP172     -0.1241
     86  CA        46.6980   40.4280   12.9700 C.3   172  TRP172      0.1605
     87  C         46.2490   39.0870   12.4090 C.2   172  TRP172      0.2264
     88  O         46.1540   38.1100   13.1440 O.2   172  TRP172     -0.2867
     89  CB        48.1870   40.3850   13.2850 C.3   172  TRP172      0.0550
     90  CG        48.7700   41.7220   13.5270 C.ar  172  TRP172      0.0003
     91  CD1       48.8570   42.3730   14.7140 C.ar  172  TRP172      0.0946
     92  CD2       49.2940   42.6130   12.5380 C.ar  172  TRP172      0.0152
     93  NE1       49.3990   43.6190   14.5320 N.ar  172  TRP172     -0.2442
     94  CE2       49.6770   43.7930   13.2050 C.ar  172  TRP172      0.0810
     95  CE3       49.4730   42.5300   11.1530 C.ar  172  TRP172      0.0012
     96  CZ2       50.2330   44.8860   12.5340 C.ar  172  TRP172      0.0191
     97  CZ3       50.0270   43.6150   10.4860 C.ar  172  TRP172      0.0001
     98  CH2       50.3990   44.7780   11.1800 C.ar  172  TRP172      0.0015
@<TRIPOS>BOND
     1    36    34   ar
     2    36    35   ar
     3    34    32   ar
     4     8     6    1
     5    35    33   ar
     6     1     2    1
     7     4     3    2
     8     6     5    1
     9     5     2    1
    10     5     7    1
    11     2     3    1
    12    32    31   ar
    13    32    30   ar
    14    33    30   ar
    15    31    29   ar
    16    30    28   ar
    17    29    28   ar
    18    28    27    1
    19    25    24    1
    20    25    26    2
    21    24    27    1
    22    24    23    1
    23    17    16    2
    24    16    23   am
    25    16    15    1
    26    22    20   am
    27    18    15    1
    28    18    19    1
    29    15    14    1
    30    14    11   am
    31    20    19    1
    32    20    21    2
    33    11    10    1
    34    11    12    2
    35    37    38    1
    36    10    13    1
    37    10     9    1
    38    40    39    2
    39    38    39    1
    40    38    41    1
    41    43    41    1
    42    39    44   am
    43    41    42    1
    44    44    45    1
    45    45    46    1
    46    64    63    2
    47    51    50    2
    48    48    46   am
    49    48    49    1
    50    46    47    2
    51    63    62    1
    52    63    65   am
    53    68    67    1
    54    68    69    2
    55    71    70    1
    56    67    70    1
    57    67    66    1
    58    60    59    2
    59    62    61    1
    60    52    49    1
    61    50    49    1
    62    70    72    1
    63    59    66   am
    64    59    58    1
    65    61    58    1
    66    58    57    1
    67    57    55   am
    68    55    54    1
    69    55    56    2
    70    54    53    1
    71    73    74    1
    72    76    75    2
    73    74    75    1
    74    74    77    1
    75    97    95   ar
    76    97    98   ar
    77    77    78    1
    78    95    92   ar
    79    98    96   ar
    80    78    80   ar
    81    78    79   ar
    82    80    82   ar
    83    87    86    1
    84    87    88    2
    85    96    94   ar
    86    92    94   ar
    87    92    90   ar
    88    86    89    1
    89    86    85    1
    90    79    81   ar
    91    94    93   ar
    92    89    90    1
    93    82    83   ar
    94    90    91   ar
    95    81    83   ar
    96    93    91   ar
    97    83    84    1
