@<TRIPOS>MOLECULE
tmp/2f1tC00.pdb
 165 152 0 0 0
SMALL
GASTEIGER

@<TRIPOS>ATOM
      1  N         68.4440   38.5590   32.5260 N.3    22  PHE22      -0.1241
      2  CA        69.7350   38.3530   31.8780 C.3    22  PHE22       0.1605
      3  C         69.6330   38.8950   30.4390 C.2    22  PHE22       0.2264
      4  O         68.9740   38.2880   29.5980 O.2    22  PHE22      -0.2867
      5  CB        69.9540   36.8340   32.0040 C.3    22  PHE22       0.0534
      6  CG        70.9310   36.2210   31.0550 C.ar   22  PHE22      -0.0203
      7  CD1       71.8650   35.3270   31.5490 C.ar   22  PHE22      -0.0042
      8  CD2       70.8200   36.3750   29.6730 C.ar   22  PHE22      -0.0042
      9  CE1       72.6590   34.5930   30.7090 C.ar   22  PHE22      -0.0003
     10  CE2       71.6180   35.6400   28.8100 C.ar   22  PHE22      -0.0003
     11  CZ        72.5380   34.7450   29.3300 C.ar   22  PHE22      -0.0000
     12  N         71.2890   40.6290   26.6620 N.3    24  VAL24      -0.1245
     13  CA        72.4610   40.6950   25.8280 C.3    24  VAL24       0.1561
     14  C         72.4240   41.9600   25.0070 C.2    24  VAL24       0.2260
     15  O         71.3910   42.3450   24.4580 O.2    24  VAL24      -0.2867
     16  CB        72.5710   39.4910   24.9030 C.3    24  VAL24       0.0252
     17  CG1       73.8170   39.6230   24.0250 C.3    24  VAL24       0.0019
     18  CG2       72.6360   38.2260   25.7320 C.3    24  VAL24       0.0019
     19  N         79.5340   40.9930   22.4180 N.3    54  HIS54      -0.1241
     20  CA        78.3200   41.2790   23.1910 C.3    54  HIS54       0.1621
     21  C         78.5820   41.3080   24.6920 C.2    54  HIS54       0.2264
     22  O         79.5140   40.6800   25.1780 O.2    54  HIS54      -0.2867
     23  CB        77.2530   40.2140   22.9220 C.3    54  HIS54       0.0745
     24  CG        76.7280   40.2170   21.5270 C.ar   54  HIS54       0.0817
     25  ND1       75.7690   41.1090   21.0940 N.ar   54  HIS54      -0.2268
     26  CD2       77.0190   39.4270   20.4650 C.ar   54  HIS54       0.1154
     27  CE1       75.4900   40.8640   19.8270 C.ar   54  HIS54       0.1986
     28  NE2       76.2360   39.8480   19.4210 N.ar   54  HIS54      -0.2212
     29  N         76.8020   40.8410   28.6740 N.3    56  ILE56      -0.1231
     30  CA        75.7060   40.2130   29.3960 C.3    56  ILE56       0.1696
     31  C         75.5880   40.8900   30.7470 C.2    56  ILE56       0.2632
     32  O         76.5950   41.2430   31.3650 O.2    56  ILE56      -0.2714
     33  CB        75.9720   38.7220   29.6710 C.3    56  ILE56       0.0266
     34  CG1       76.5970   38.0660   28.4510 C.3    56  ILE56       0.0019
     35  CG2       74.6710   38.0270   30.0450 C.3    56  ILE56       0.0020
     36  CD1       75.7690   38.2060   27.2060 C.3    56  ILE56       0.0001
     37  N         74.3600   41.0630   31.2210 N.am   57  GLY57      -0.1718
     38  CA        74.1970   41.6910   32.5140 C.2    57  GLY57       0.1480
     39  C         72.7900   41.7800   33.0550 C.2    57  GLY57       0.2821
     40  O         71.8190   41.6290   32.3270 O.2    57  GLY57      -0.2669
     41  N         72.7140   42.0290   34.3590 N.am   58  THR58      -0.1916
     42  CA        71.4710   42.1870   35.0980 C.3    58  THR58       0.1900
     43  C         71.3950   43.6680   35.3350 C.2    58  THR58       0.2313
     44  O         72.4260   44.3080   35.4880 O.2    58  THR58      -0.2863
     45  CB        71.5590   41.5540   36.4680 C.3    58  THR58       0.1794
     46  OG1       72.1370   40.2580   36.3410 O.3    58  THR58      -0.2208
     47  CG2       70.1810   41.4340   37.0930 C.3    58  THR58       0.0378
     48  N         73.3630   44.2930   38.4180 N.3    61  THR61      -0.1218
     49  CA        74.8150   44.2430   38.3970 C.3    61  THR61       0.1862
     50  C         75.4310   45.0540   37.2770 C.2    61  THR61       0.2287
     51  O         76.5980   45.4350   37.3440 O.2    61  THR61      -0.2866
     52  CB        75.3130   42.8110   38.1790 C.3    61  THR61       0.1770
     53  OG1       74.7750   42.3090   36.9450 O.3    61  THR61      -0.2211
     54  CG2       74.9030   41.9190   39.3200 C.3    61  THR61       0.0375
     55  N         78.3600   42.0670   33.2120 N.3    64  ILE64      -0.1231
     56  CA        79.1040   41.1280   34.0620 C.3    64  ILE64       0.1692
     57  C         79.9020   40.0650   33.3220 C.2    64  ILE64       0.2591
     58  O         80.5130   39.2100   33.9410 O.2    64  ILE64      -0.2718
     59  CB        78.1850   40.4110   35.0750 C.3    64  ILE64       0.0266
     60  CG1       77.0270   39.7210   34.3450 C.3    64  ILE64       0.0019
     61  CG2       77.7170   41.4090   36.1320 C.3    64  ILE64       0.0020
     62  CD1       77.4180   38.4930   33.5470 C.3    64  ILE64       0.0001
     63  N         79.8920   40.1190   32.0010 N.am   65  ALA65      -0.1980
     64  CA        80.6290   39.1660   31.1810 C.3    65  ALA65       0.1597
     65  C         80.4590   39.6130   29.7470 C.2    65  ALA65       0.2287
     66  O         79.4470   40.2010   29.3960 O.2    65  ALA65      -0.2864
     67  CB        80.0700   37.7540   31.3600 C.3    65  ALA65       0.0319
     68  N         80.8340   38.4280   25.5370 N.3    67  VAL67      -0.1245
     69  CA        80.8800   37.2750   24.6290 C.3    67  VAL67       0.1561
     70  C         81.2550   37.6530   23.1860 C.2    67  VAL67       0.2260
     71  O         81.0870   38.7990   22.7750 O.2    67  VAL67      -0.2867
     72  CB        79.4890   36.5730   24.6090 C.3    67  VAL67       0.0252
     73  CG1       79.4370   35.5080   23.5280 C.3    67  VAL67       0.0019
     74  CG2       79.2060   35.9660   25.9660 C.3    67  VAL67       0.0019
     75  N         80.6240   30.5660   19.4540 N.3   100  PHE100     -0.1241
     76  CA        81.0190   31.5240   20.4670 C.3   100  PHE100      0.1605
     77  C         82.4870   31.3330   20.8030 C.2   100  PHE100      0.2264
     78  O         83.0870   30.3280   20.4130 O.2   100  PHE100     -0.2867
     79  CB        80.1340   31.3740   21.6990 C.3   100  PHE100      0.0534
     80  CG        78.7100   31.7480   21.4430 C.ar  100  PHE100     -0.0203
     81  CD1       77.8850   30.9120   20.7040 C.ar  100  PHE100     -0.0042
     82  CD2       78.2120   32.9700   21.8760 C.ar  100  PHE100     -0.0042
     83  CE1       76.5830   31.2930   20.3960 C.ar  100  PHE100     -0.0003
     84  CE2       76.9120   33.3610   21.5740 C.ar  100  PHE100     -0.0003
     85  CZ        76.0960   32.5240   20.8340 C.ar  100  PHE100     -0.0000
     86  N         83.8780   36.8180   32.2940 N.3   105  PHE105     -0.1241
     87  CA        83.1880   37.7290   33.1880 C.3   105  PHE105      0.1605
     88  C         83.9990   38.9880   33.4690 C.2   105  PHE105      0.2264
     89  O         85.2270   38.9550   33.5110 O.2   105  PHE105     -0.2867
     90  CB        82.8400   37.0280   34.5030 C.3   105  PHE105      0.0534
     91  CG        81.8400   35.9030   34.3510 C.ar  105  PHE105     -0.0203
     92  CD1       82.2640   34.5870   34.1330 C.ar  105  PHE105     -0.0042
     93  CD2       80.4650   36.1540   34.4410 C.ar  105  PHE105     -0.0042
     94  CE1       81.3270   33.5370   34.0130 C.ar  105  PHE105     -0.0003
     95  CE2       79.5240   35.1120   34.3200 C.ar  105  PHE105     -0.0003
     96  CZ        79.9560   33.8060   34.1090 C.ar  105  PHE105     -0.0000
     97  N         82.0270   38.8910   41.6930 N.3   112  ALA112     -0.1245
     98  CA        80.6980   38.5570   42.1650 C.3   112  ALA112      0.1562
     99  C         80.6830   37.0560   42.3870 C.2   112  ALA112      0.2260
    100  O         79.7330   36.5160   42.9420 O.2   112  ALA112     -0.2867
    101  CB        79.6540   38.9470   41.1340 C.3   112  ALA112      0.0290
    102  N         82.0670   34.6540   39.6960 N.3   114  LEU114     -0.1245
    103  CA        81.9630   33.9420   38.4260 C.3   114  LEU114      0.1561
    104  C         83.3340   33.6820   37.8250 C.2   114  LEU114      0.2260
    105  O         84.2830   34.4210   38.0780 O.2   114  LEU114     -0.2867
    106  CB        81.1220   34.7380   37.4280 C.3   114  LEU114      0.0270
    107  CG        79.6010   34.6740   37.5570 C.3   114  LEU114      0.0019
    108  CD1       79.1550   33.2230   37.4860 C.3   114  LEU114      0.0001
    109  CD2       79.1550   35.3050   38.8570 C.3   114  LEU114      0.0001
    110  N         84.0540   30.8490   31.7160 N.3   117  LEU117     -0.1245
    111  CA        82.8560   30.9080   30.8810 C.3   117  LEU117      0.1561
    112  C         83.0820   30.1580   29.5630 C.2   117  LEU117      0.2260
    113  O         84.2170   29.9160   29.1530 O.2   117  LEU117     -0.2867
    114  CB        82.4990   32.3750   30.5770 C.3   117  LEU117      0.0270
    115  CG        81.0410   32.8530   30.4590 C.3   117  LEU117      0.0019
    116  CD1       81.0400   34.2520   29.8710 C.3   117  LEU117      0.0001
    117  CD2       80.2150   31.9340   29.5810 C.3   117  LEU117      0.0001
    118  N         80.3570   28.8490   25.8860 N.3   119  LEU119     -0.1245
    119  CA        79.0380   28.5960   25.3110 C.3   119  LEU119      0.1561
    120  C         79.1380   27.5830   24.1620 C.2   119  LEU119      0.2260
    121  O         80.0400   27.6660   23.3250 O.2   119  LEU119     -0.2867
    122  CB        78.4220   29.9060   24.7960 C.3   119  LEU119      0.0270
    123  CG        78.1000   31.0520   25.7700 C.3   119  LEU119      0.0019
    124  CD1       79.3610   31.7180   26.2890 C.3   119  LEU119      0.0001
    125  CD2       77.2620   32.0800   25.0400 C.3   119  LEU119      0.0001
    126  N         75.0670   28.3090   28.4990 N.3   154  ALA154     -0.1245
    127  CA        76.2920   28.8210   29.1140 C.3   154  ALA154      0.1562
    128  C         76.8950   27.8340   30.1200 C.2   154  ALA154      0.2260
    129  O         76.2010   26.9490   30.6230 O.2   154  ALA154     -0.2867
    130  CB        76.0070   30.1590   29.7940 C.3   154  ALA154      0.0290
    131  N         79.6420   28.4680   33.2470 N.3   156  TYR156     -0.1241
    132  CA        80.6070   29.2100   34.0490 C.3   156  TYR156      0.1605
    133  C         81.0710   28.4490   35.2880 C.2   156  TYR156      0.2264
    134  O         81.5610   27.3340   35.1660 O.2   156  TYR156     -0.2867
    135  CB        80.0040   30.5540   34.4380 C.3   156  TYR156      0.0534
    136  CG        78.5420   30.4830   34.7990 C.ar  156  TYR156     -0.0201
    137  CD1       78.1350   30.1390   36.0840 C.ar  156  TYR156     -0.0009
    138  CD2       77.5620   30.7730   33.8530 C.ar  156  TYR156     -0.0009
    139  CE1       76.7910   30.0920   36.4190 C.ar  156  TYR156      0.0417
    140  CE2       76.2150   30.7260   34.1770 C.ar  156  TYR156      0.0417
    141  CZ        75.8370   30.3870   35.4610 C.ar  156  TYR156      0.1957
    142  OH        74.5030   30.3480   35.7850 O.3   156  TYR156     -0.2866
    143  N         79.7940   29.5880   39.2420 N.3   158  LEU158     -0.1245
    144  CA        79.3900   30.4640   40.3410 C.3   158  LEU158      0.1561
    145  C         79.9250   30.0380   41.7020 C.2   158  LEU158      0.2260
    146  O         79.2660   29.2990   42.4350 O.2   158  LEU158     -0.2867
    147  CB        77.8620   30.5690   40.3980 C.3   158  LEU158      0.0270
    148  CG        77.2710   31.3690   41.5600 C.3   158  LEU158      0.0019
    149  CD1       78.0980   32.6080   41.8260 C.3   158  LEU158      0.0001
    150  CD2       75.8440   31.7400   41.2310 C.3   158  LEU158      0.0001
    151  N         70.3270   30.1060   26.7460 N.3   167  VAL167     -0.1245
    152  CA        70.4320   31.4760   26.2200 C.3   167  VAL167      0.1561
    153  C         69.7970   31.4490   24.8340 C.2   167  VAL167      0.2260
    154  O         70.2380   30.7210   23.9530 O.2   167  VAL167     -0.2867
    155  CB        71.8650   31.9930   26.0660 C.3   167  VAL167      0.0252
    156  CG1       71.8370   33.3550   25.3870 C.3   167  VAL167      0.0019
    157  CG2       72.4930   32.1320   27.4190 C.3   167  VAL167      0.0019
    158  N         69.4110   33.6350   21.8640 N.3   169  LEU169     -0.1245
    159  CA        69.7950   34.8430   21.1410 C.3   169  LEU169      0.1561
    160  C         68.7710   35.2260   20.0660 C.2   169  LEU169      0.2260
    161  O         68.4410   36.4160   19.9330 O.2   169  LEU169     -0.2867
    162  CB        71.1930   34.6720   20.5340 C.3   169  LEU169      0.0270
    163  CG        72.4150   34.7660   21.4680 C.3   169  LEU169      0.0019
    164  CD1       73.6710   34.7770   20.6030 C.3   169  LEU169      0.0001
    165  CD2       72.3840   36.0500   22.3140 C.3   169  LEU169      0.0001
@<TRIPOS>BOND
     1    28    27   ar
     2    28    26   ar
     3    75    76    1
     4    27    25   ar
     5   161   160    2
     6   160   159    1
     7    83    81   ar
     8    83    85   ar
     9    78    77    2
    10    26    24   ar
    11    76    77    1
    12    76    79    1
    13   162   159    1
    14   162   163    1
    15   164   163    1
    16    81    80   ar
    17    85    84   ar
    18    25    24   ar
    19   159   158    1
    20    80    79    1
    21    80    82   ar
    22   163   165    1
    23    24    23    1
    24    84    82   ar
    25    19    20    1
    26    71    70    2
    27    23    20    1
    28    70    69    1
    29    20    21    1
    30   121   120    2
    31    73    72    1
    32   154   153    2
    33    17    16    1
    34   120   119    1
    35    15    14    2
    36    72    69    1
    37    72    74    1
    38    69    68    1
    39    21    22    2
    40   122   119    1
    41   122   123    1
    42   153   152    1
    43    16    18    1
    44    16    13    1
    45    14    13    1
    46   125   123    1
    47   119   118    1
    48   156   155    1
    49   123   124    1
    50    13    12    1
    51   155   152    1
    52   155   157    1
    53   152   151    1
    54    36    34    1
    55    34    33    1
    56   126   127    1
    57    29    30    1
    58    10    11   ar
    59    10     8   ar
    60   127   130    1
    61   127   128    1
    62   113   112    2
    63    11     9   ar
    64    66    65    2
    65    30    33    1
    66    30    31    1
    67   112   111    1
    68   117   115    1
    69     4     3    2
    70    33    35    1
    71     8     6   ar
    72    65    64    1
    73   116   115    1
    74   128   129    2
    75     3     2    1
    76   115   114    1
    77   114   111    1
    78     9     7   ar
    79    31    37    1
    80    31    32    2
    81   111   110    1
    82     6     7   ar
    83     6     5    1
    84    64    67    1
    85    64    63    1
    86    37    38    2
    87     2     5    1
    88     2     1    1
    89    63    57   am
    90    86    87    1
    91    40    39    2
    92    38    39    1
    93    39    41   am
    94    87    88    1
    95    87    90    1
    96    55    56    1
    97   131   132    1
    98    57    58    2
    99    57    56    1
   100    88    89    2
   101    62    60    1
   102   138   140   ar
   103   138   136   ar
   104    94    96   ar
   105    94    92   ar
   106   132   135    1
   107   132   133    1
   108    56    59    1
   109    96    95   ar
   110    92    91   ar
   111   140   141   ar
   112    95    93   ar
   113    60    59    1
   114    91    93   ar
   115    91    90    1
   116    41    42    1
   117   135   136    1
   118   136   137   ar
   119    59    61    1
   120    42    43    1
   121    42    45    1
   122   134   133    2
   123    43    44    2
   124   141   142    1
   125   141   139   ar
   126   137   139   ar
   127    46    45    1
   128    45    47    1
   129    53    52    1
   130    50    51    2
   131    50    49    1
   132   106   107    1
   133   106   103    1
   134   108   107    1
   135   107   109    1
   136   104   105    2
   137   104   103    1
   138    52    49    1
   139    52    54    1
   140    49    48    1
   141   103   102    1
   142   143   144    1
   143   144   147    1
   144   144   145    1
   145   147   148    1
   146   101    98    1
   147   150   148    1
   148   148   149    1
   149    97    98    1
   150   145   146    2
   151    98    99    1
   152    99   100    2
