@<TRIPOS>MOLECULE
tmp/2f2aA00.pdb
 113 106 0 0 0
SMALL
GASTEIGER

@<TRIPOS>ATOM
      1  N         17.1980   -8.3710   21.2550 N.3    79  LYS79      -0.1245
      2  CA        15.8470   -8.4440   20.6900 C.3    79  LYS79       0.1561
      3  C         15.9280   -9.2930   19.4320 C.2    79  LYS79       0.2260
      4  O         16.8140   -9.0790   18.6030 O.2    79  LYS79      -0.2867
      5  CB        15.3410   -7.0390   20.3500 C.3    79  LYS79       0.0271
      6  CG        13.8960   -6.9790   19.8400 C.3    79  LYS79       0.0035
      7  CD        13.4080   -5.5340   19.8250 C.3    79  LYS79       0.0206
      8  CE        12.0410   -5.3860   19.1650 C.3    79  LYS79       0.1093
      9  NZ        11.6190   -3.9480   19.1020 N.3    79  LYS79      -0.1314
     10  N          8.0270   -6.2280   15.4650 N.3   128  ALA128     -0.1245
     11  CA         8.1340   -4.9940   16.2180 C.3   128  ALA128      0.1562
     12  C          6.9100   -4.0950   16.1900 C.2   128  ALA128      0.2260
     13  O          7.0120   -2.8940   16.4490 O.2   128  ALA128     -0.2867
     14  CB         9.3880   -4.2180   15.7500 C.3   128  ALA128      0.0290
     15  N          3.6330   -3.1760   17.9850 N.3   130  GLY130     -0.1210
     16  CA         2.8030   -3.2880   19.1690 C.3   130  GLY130      0.1956
     17  C          3.3470   -2.5010   20.3410 C.2   130  GLY130      0.2612
     18  O          4.3940   -1.8570   20.2320 O.2   130  GLY130     -0.2717
     19  N          2.6320   -2.5500   21.4600 N.am  131  GLY131     -0.1956
     20  CA         3.0420   -1.8340   22.6540 C.3   131  GLY131      0.1869
     21  C          2.9080   -2.6640   23.9220 C.2   131  GLY131      0.2309
     22  O          2.8280   -2.1210   25.0210 O.2   131  GLY131     -0.2863
     23  N          6.0050   -2.7100   24.7770 N.3   153  GLY153     -0.1210
     24  CA         6.3340   -3.2340   23.4620 C.3   153  GLY153      0.1956
     25  C          6.9270   -2.1470   22.5850 C.2   153  GLY153      0.2612
     26  O          6.7460   -0.9720   22.8790 O.2   153  GLY153     -0.2717
     27  N          7.5930   -2.5180   21.4940 N.am  154  SER154     -0.1952
     28  CA         7.7580   -3.9110   21.0880 C.3   154  SER154      0.1924
     29  C          8.9290   -4.6510   21.7270 C.2   154  SER154      0.2314
     30  O          9.0100   -5.8750   21.6240 O.2   154  SER154     -0.2863
     31  CB         7.8910   -3.9850   19.5680 C.3   154  SER154      0.2116
     32  OG         8.9830   -3.1950   19.1270 O.3   154  SER154     -0.2180
     33  N         14.9420   -2.1650   19.9050 N.3   173  SER173     -0.1217
     34  CA        14.8520   -1.3110   18.7300 C.3   173  SER173      0.1889
     35  C         13.7020   -0.3440   19.0130 C.2   173  SER173      0.2288
     36  O         12.7600   -0.6750   19.7330 O.2   173  SER173     -0.2866
     37  CB        14.5920   -2.1300   17.4490 C.3   173  SER173      0.2089
     38  OG        13.2940   -2.7070   17.4260 O.3   173  SER173     -0.2183
     39  N         11.2110    2.3190   16.9400 N.3   175  THR175     -0.1203
     40  CA        10.6850    2.8850   15.6970 C.3   175  THR175      0.1994
     41  C          9.6730    3.9820   16.0170 C.2   175  THR175      0.2618
     42  O          9.5730    4.9730   15.3060 O.2   175  THR175     -0.2717
     43  CB        10.0070    1.7850   14.8720 C.3   175  THR175      0.1784
     44  OG1       10.9970    0.8170   14.5120 O.3   175  THR175     -0.2211
     45  CG2        9.3750    2.3420   13.5970 C.3   175  THR175      0.0376
     46  N          8.9190    3.7750   17.0870 N.am  176  GLY176     -0.1942
     47  CA         7.9060    4.7110   17.5210 C.3   176  GLY176      0.2014
     48  C          7.9110    4.8040   19.0280 C.2   176  GLY176      0.2639
     49  O          6.9950    5.3600   19.6150 O.2   176  GLY176     -0.2714
     50  N          8.9420    4.2390   19.6540 N.am  177  GLY177     -0.1939
     51  CA         9.0730    4.2850   21.1070 C.3   177  GLY177      0.2014
     52  C          9.3030    2.9420   21.7620 C.2   177  GLY177      0.2639
     53  O          9.2580    2.8370   22.9710 O.2   177  GLY177     -0.2714
     54  N          9.6480    1.9380   20.9690 N.am  178  SER178     -0.1949
     55  CA         9.7940    0.5670   21.4630 C.3   178  SER178      0.1924
     56  C         10.9310    0.1970   22.4130 C.2   178  SER178      0.2314
     57  O         11.0700   -0.9460   22.8220 O.2   178  SER178     -0.2863
     58  CB         9.7480   -0.3570   20.2530 C.3   178  SER178      0.2116
     59  OG         8.4690   -0.3580   19.6490 O.3   178  SER178     -0.2180
     60  N         11.4920   -2.2120   10.0490 N.3   206  PHE206     -0.1241
     61  CA        10.1060   -1.9120   10.3850 C.3   206  PHE206      0.1605
     62  C          9.8820   -0.6650    9.5150 C.2   206  PHE206      0.2264
     63  O          9.3460   -0.7480    8.4070 O.2   206  PHE206     -0.2867
     64  CB         9.9870   -1.5910   11.8840 C.3   206  PHE206      0.0534
     65  CG         8.5820   -1.2180   12.3410 C.ar  206  PHE206     -0.0203
     66  CD1        7.5980   -0.8430   11.4280 C.ar  206  PHE206     -0.0042
     67  CD2        8.2790   -1.1540   13.7020 C.ar  206  PHE206     -0.0042
     68  CE1        6.3410   -0.4030   11.8640 C.ar  206  PHE206     -0.0003
     69  CE2        7.0250   -0.7140   14.1470 C.ar  206  PHE206     -0.0003
     70  CZ         6.0560   -0.3350   13.2240 C.ar  206  PHE206     -0.0000
     71  N          2.7380    9.3180   12.5460 N.3   309  TYR309     -0.1227
     72  CA         3.6530    8.2100   12.7630 C.3   309  TYR309      0.1736
     73  C          3.0780    6.9100   12.2060 C.2   309  TYR309      0.2595
     74  O          3.7630    6.1820   11.4850 O.2   309  TYR309     -0.2718
     75  CB         3.9550    8.0110   14.2550 C.3   309  TYR309      0.0548
     76  CG         4.5610    6.6520   14.5230 C.ar  309  TYR309     -0.0200
     77  CD1        5.9030    6.4010   14.2410 C.ar  309  TYR309     -0.0009
     78  CD2        3.7640    5.5820   14.9470 C.ar  309  TYR309     -0.0009
     79  CE1        6.4400    5.1240   14.3560 C.ar  309  TYR309      0.0417
     80  CE2        4.2900    4.3000   15.0700 C.ar  309  TYR309      0.0417
     81  CZ         5.6320    4.0770   14.7660 C.ar  309  TYR309      0.1957
     82  OH         6.1570    2.8070   14.8390 O.3   309  TYR309     -0.2866
     83  N          1.8250    6.6150   12.5490 N.am  310  TYR310     -0.1976
     84  CA         1.1850    5.3910   12.0840 C.3   310  TYR310      0.1639
     85  C          1.0190    5.3260   10.5720 C.2   310  TYR310      0.2290
     86  O          1.0880    4.2490    9.9830 O.2   310  TYR310     -0.2864
     87  CB        -0.1550    5.1820   12.8030 C.3   310  TYR310      0.0560
     88  CG         0.0170    4.4130   14.0880 C.ar  310  TYR310     -0.0198
     89  CD1        0.1890    3.0260   14.0730 C.ar  310  TYR310     -0.0009
     90  CD2        0.1420    5.0740   15.3020 C.ar  310  TYR310     -0.0009
     91  CE1        0.5010    2.3220   15.2380 C.ar  310  TYR310      0.0417
     92  CE2        0.4520    4.3820   16.4770 C.ar  310  TYR310      0.0417
     93  CZ         0.6390    3.0110   16.4340 C.ar  310  TYR310      0.1957
     94  OH         1.0240    2.3410   17.5740 O.3   310  TYR310     -0.2866
     95  N         -1.0690   -3.2920    9.8770 N.3   358  ARG358     -0.1245
     96  CA        -0.0920   -2.2750    9.4800 C.3   358  ARG358      0.1563
     97  C          0.1070   -2.2960    7.9700 C.2   358  ARG358      0.2260
     98  O          0.1210   -1.2430    7.3230 O.2   358  ARG358     -0.2867
     99  CB         1.2570   -2.4960   10.1840 C.3   358  ARG358      0.0307
    100  CG         1.2080   -2.5790   11.7270 C.3   358  ARG358      0.0489
    101  CD         0.4610   -1.4140   12.4160 C.3   358  ARG358      0.2205
    102  NE         0.4740   -1.5380   13.8800 N.pl3 358  ARG358     -0.0865
    103  CZ         1.4740   -1.1610   14.6800 C.cat 358  ARG358      0.5346
    104  NH1        2.6080   -0.6000   14.2090 N.pl3 358  ARG358      0.1354
    105  NH2        1.3480   -1.3680   15.9800 N.pl3 358  ARG358      0.1354
    106  N          1.5330    5.4930   22.5820 N.3   425  ASP425     -0.1239
    107  CA         2.7100    6.0090   21.8770 C.3   425  ASP425      0.1674
    108  C          2.6960    7.5360   21.7660 C.2   425  ASP425      0.2266
    109  O          3.5390    8.1270   21.0960 O.2   425  ASP425     -0.2867
    110  CB         2.8060    5.3690   20.4750 C.3   425  ASP425      0.1410
    111  CG         2.8840    3.8370   20.5290 C.2   425  ASP425      0.3668
    112  OD1        3.1860    3.3190   21.6220 O.co2 425  ASP425     -0.2456
    113  OD2        2.6770    3.1540   19.4940 O.co2 425  ASP425     -0.2456
@<TRIPOS>BOND
     1    98    97    2
     2    97    96    1
     3    63    62    2
     4    96    95    1
     5    96    99    1
     6    62    61    1
     7    86    85    2
     8    60    61    1
     9    99   100    1
    10    61    64    1
    11    85    84    1
    12    66    68   ar
    13    66    65   ar
    14    74    73    2
    15   100   101    1
    16    68    70   ar
    17    64    65    1
    18    84    83    1
    19    84    87    1
    20    73    83   am
    21    73    72    1
    22    65    67   ar
    23   101   102    1
    24    71    72    1
    25    72    75    1
    26    87    88    1
    27    70    69   ar
    28    45    43    1
    29    67    69   ar
    30   102   103    2
    31    89    88   ar
    32    89    91   ar
    33    88    90   ar
    34   104   103    1
    35    77    79   ar
    36    77    76   ar
    37    75    76    1
    38    79    81   ar
    39    44    43    1
    40    76    78   ar
    41   103   105    1
    42    81    82    1
    43    81    80   ar
    44    43    40    1
    45    78    80   ar
    46    91    93   ar
    47    90    92   ar
    48    42    41    2
    49    10    11    1
    50    40    41    1
    51    40    39    1
    52    14    11    1
    53    41    46   am
    54    12    11    1
    55    12    13    2
    56    93    92   ar
    57    93    94    1
    58    46    47    1
    59    38    37    1
    60    37    34    1
    61    47    48    1
    62    15    16    1
    63     4     3    2
    64    34    35    1
    65    34    33    1
    66    35    36    2
    67    48    49    2
    68    48    50   am
    69     9     8    1
    70    32    31    1
    71     8     7    1
    72    16    17    1
    73     3     2    1
    74   113   111   ar
    75    31    28    1
    76    59    58    1
    77    50    51    1
    78     7     6    1
    79     6     5    1
    80    18    17    2
    81    58    55    1
    82    17    19   am
    83     5     2    1
    84   110   111    1
    85   110   107    1
    86   111   112   ar
    87     2     1    1
    88    54    55    1
    89    54    52   am
    90    28    27    1
    91    28    29    1
    92   109   108    2
    93    51    52    1
    94    19    20    1
    95    55    56    1
    96    27    25   am
    97    30    29    2
    98    52    53    2
    99   108   107    1
   100   107   106    1
   101    56    57    2
   102    25    26    2
   103    25    24    1
   104    20    21    1
   105    24    23    1
   106    21    22    2
