@<TRIPOS>MOLECULE
tmp/2f2cB00.pdb
 165 155 0 0 0
SMALL
GASTEIGER

@<TRIPOS>ATOM
      1  N         35.4010   15.5400   58.4050 N.3    10  ILE10      -0.1231
      2  CA        34.0150   15.7480   58.8430 C.3    10  ILE10       0.1692
      3  C         33.2490   16.7660   57.9920 C.2    10  ILE10       0.2592
      4  O         32.3030   17.3950   58.4660 O.2    10  ILE10      -0.2718
      5  CB        33.9280   16.1020   60.3600 C.3    10  ILE10       0.0266
      6  CG1       34.7130   17.3750   60.6930 C.3    10  ILE10       0.0019
      7  CG2       34.3460   14.8930   61.2370 C.3    10  ILE10       0.0020
      8  CD1       34.1510   18.1450   61.8820 C.3    10  ILE10       0.0001
      9  N         33.6610   16.9100   56.7330 N.am   11  GLY11      -0.1957
     10  CA        33.0150   17.8200   55.7880 C.3    11  GLY11       0.1869
     11  C         33.9770   18.3580   54.7430 C.2    11  GLY11       0.2309
     12  O         33.7900   19.4580   54.2100 O.2    11  GLY11      -0.2863
     13  N         36.8010   20.8000   56.1990 N.3    14  VAL14      -0.1245
     14  CA        36.7980   20.9260   57.6580 C.3    14  VAL14       0.1561
     15  C         37.0850   19.5870   58.3330 C.2    14  VAL14       0.2260
     16  O         36.5500   18.5470   57.9320 O.2    14  VAL14      -0.2867
     17  CB        35.4430   21.4710   58.1700 C.3    14  VAL14       0.0252
     18  CG1       35.4270   21.5740   59.6840 C.3    14  VAL14       0.0019
     19  CG2       35.1400   22.8260   57.5500 C.3    14  VAL14       0.0019
     20  N         37.9540   17.5670   62.3460 N.3    16  LYS16      -0.1245
     21  CA        37.9530   17.5770   63.8160 C.3    16  LYS16       0.1561
     22  C         39.3440   17.2070   64.3340 C.2    16  LYS16       0.2260
     23  O         39.8960   16.1790   63.9440 O.2    16  LYS16      -0.2867
     24  CB        36.8930   16.6070   64.3670 C.3    16  LYS16       0.0271
     25  CG        36.7260   16.6280   65.8790 C.3    16  LYS16       0.0035
     26  CD        35.7550   15.5320   66.3180 C.3    16  LYS16       0.0206
     27  CE        35.4010   15.6120   67.7850 C.3    16  LYS16       0.1093
     28  NZ        36.5400   15.3980   68.6840 N.3    16  LYS16      -0.1314
     29  N         38.1030   23.1130   65.5980 N.3    28  ALA28      -0.1245
     30  CA        37.6430   22.8490   64.2400 C.3    28  ALA28       0.1562
     31  C         38.5880   23.4910   63.2210 C.2    28  ALA28       0.2260
     32  O         38.7460   24.7170   63.1810 O.2    28  ALA28      -0.2867
     33  CB        36.2110   23.3160   64.0550 C.3    28  ALA28       0.0290
     34  N         39.6440   24.4960   59.5420 N.3    30  LYS30      -0.1245
     35  CA        39.1380   24.7950   58.2130 C.3    30  LYS30       0.1561
     36  C         40.2800   25.0030   57.2270 C.2    30  LYS30       0.2260
     37  O         40.9710   26.0310   57.2640 O.2    30  LYS30      -0.2867
     38  CB        38.2380   26.0290   58.2500 C.3    30  LYS30       0.0271
     39  CG        37.3220   26.1560   57.0450 C.3    30  LYS30       0.0035
     40  CD        36.5500   27.4450   57.1230 C.3    30  LYS30       0.0206
     41  CE        35.4580   27.4940   56.0850 C.3    30  LYS30       0.1093
     42  NZ        34.9240   28.8850   55.9970 N.3    30  LYS30      -0.1314
     43  N         35.3700   37.0180   56.0490 N.3    48  GLU48      -0.1245
     44  CA        34.9400   36.1880   57.1650 C.3    48  GLU48       0.1567
     45  C         35.8050   36.4600   58.4120 C.2    48  GLU48       0.2260
     46  O         35.2940   36.8280   59.4900 O.2    48  GLU48      -0.2867
     47  CB        35.0040   34.7220   56.7440 C.3    48  GLU48       0.0388
     48  CG        34.6950   33.7290   57.8540 C.3    48  GLU48       0.1160
     49  CD        34.7130   32.2810   57.3780 C.2    48  GLU48       0.3649
     50  OE1       35.2480   32.0190   56.2660 O.co2  48  GLU48      -0.2457
     51  OE2       34.1930   31.4100   58.1090 O.co2  48  GLU48      -0.2457
     52  N         30.0680   31.9900   66.3540 N.3    64  VAL64      -0.1245
     53  CA        31.1850   31.0540   66.5060 C.3    64  VAL64       0.1561
     54  C         32.4860   31.8230   66.7930 C.2    64  VAL64       0.2260
     55  O         32.5840   33.0120   66.4590 O.2    64  VAL64      -0.2867
     56  CB        31.2920   30.0730   65.3110 C.3    64  VAL64       0.0252
     57  CG1       31.7120   30.7820   64.0420 C.3    64  VAL64       0.0019
     58  CG2       32.2370   28.9370   65.6340 C.3    64  VAL64       0.0019
     59  N         38.9560   27.0130   64.7090 N.3    84  PHE84      -0.1227
     60  CA        37.7820   27.5230   65.4110 C.3    84  PHE84       0.1736
     61  C         37.5150   26.6320   66.6200 C.2    84  PHE84       0.2595
     62  O         38.0470   25.5280   66.7190 O.2    84  PHE84      -0.2718
     63  CB        36.5340   27.4120   64.5390 C.3    84  PHE84       0.0547
     64  CG        36.5370   28.2550   63.2860 C.ar   84  PHE84      -0.0202
     65  CD1       37.0820   27.7660   62.1030 C.ar   84  PHE84      -0.0042
     66  CD2       35.8930   29.4920   63.2650 C.ar   84  PHE84      -0.0042
     67  CE1       37.0300   28.5080   60.9380 C.ar   84  PHE84      -0.0003
     68  CE2       35.8330   30.2370   62.1090 C.ar   84  PHE84      -0.0003
     69  CZ        36.4030   29.7450   60.9430 C.ar   84  PHE84      -0.0000
     70  N         36.6540   27.0870   67.5230 N.am   85  GLU85      -0.1965
     71  CA        36.1150   26.2020   68.5380 C.3    85  GLU85       0.1733
     72  C         35.3330   25.0850   67.8580 C.2    85  GLU85       0.2616
     73  O         34.7020   25.3090   66.8250 O.2    85  GLU85      -0.2715
     74  CB        35.2170   26.9740   69.5080 C.3    85  GLU85       0.0429
     75  CG        33.9200   27.5200   68.9230 C.3    85  GLU85       0.1163
     76  CD        32.9650   28.0340   69.9880 C.2    85  GLU85       0.3649
     77  OE1       32.6990   27.2950   70.9640 O.co2  85  GLU85      -0.2457
     78  OE2       32.4790   29.1770   69.8500 O.co2  85  GLU85      -0.2457
     79  N         35.3820   23.8770   68.4100 N.am   86  HIS86      -0.1959
     80  CA        34.5410   22.8140   67.8610 C.3    86  HIS86       0.1787
     81  C         33.1440   22.8870   68.4470 C.2    86  HIS86       0.2620
     82  O         32.9750   23.0520   69.6540 O.2    86  HIS86      -0.2715
     83  CB        35.1360   21.4230   68.0540 C.3    86  HIS86       0.0785
     84  CG        34.3480   20.3420   67.3830 C.ar   86  HIS86       0.0821
     85  ND1       33.6270   19.3960   68.0850 N.ar   86  HIS86      -0.2267
     86  CD2       34.1500   20.0670   66.0700 C.ar   86  HIS86       0.1154
     87  CE1       33.0300   18.5780   67.2350 C.ar   86  HIS86       0.1986
     88  NE2       33.3300   18.9630   66.0060 N.ar   86  HIS86      -0.2212
     89  N         32.1480   22.8110   67.5740 N.am   87  VAL87      -0.1963
     90  CA        30.7770   22.6100   68.0110 C.3    87  VAL87       0.1727
     91  C         30.3400   21.2170   67.5210 C.2    87  VAL87       0.2616
     92  O         30.6770   20.8180   66.4030 O.2    87  VAL87      -0.2715
     93  CB        29.8470   23.7450   67.5410 C.3    87  VAL87       0.0290
     94  CG1       28.5220   23.6910   68.2730 C.3    87  VAL87       0.0023
     95  CG2       30.4950   25.0910   67.7940 C.3    87  VAL87       0.0023
     96  N         29.6180   20.4800   68.3630 N.am   88  ASP88      -0.1957
     97  CA        29.3660   19.0440   68.1350 C.3    88  ASP88       0.1840
     98  C         28.4510   18.6900   66.9520 C.2    88  ASP88       0.2622
     99  O         28.4680   17.5520   66.4640 O.2    88  ASP88      -0.2715
    100  CB        28.8400   18.3680   69.4230 C.3    88  ASP88       0.1450
    101  CG        29.6550   18.7410   70.6600 C.2    88  ASP88       0.3671
    102  OD1       29.8320   17.8550   71.5220 O.co2  88  ASP88      -0.2456
    103  OD2       30.1610   19.8910   70.8450 O.co2  88  ASP88      -0.2456
    104  N         27.6700   19.6630   66.4920 N.am   89  GLN89      -0.1963
    105  CA        26.5850   19.3970   65.5610 C.3    89  GLN89       0.1733
    106  C         26.1260   20.6830   64.8820 C.2    89  GLN89       0.2616
    107  O         26.1260   21.7480   65.5040 O.2    89  GLN89      -0.2715
    108  CB        25.4170   18.8010   66.3440 C.3    89  GLN89       0.0408
    109  CG        24.4810   17.9210   65.5530 C.3    89  GLN89       0.0908
    110  CD        23.3470   17.3700   66.4080 C.2    89  GLN89       0.2608
    111  OE1       22.7890   18.0770   67.2520 O.2    89  GLN89      -0.2717
    112  NE2       22.9910   16.1130   66.1760 N.am   89  GLN89      -0.0878
    113  N         25.7500   20.5860   63.6080 N.am   90  ASP90      -0.1971
    114  CA        25.0090   21.6680   62.9420 C.3    90  ASP90       0.1709
    115  C         23.5050   21.4200   63.1120 C.2    90  ASP90       0.2293
    116  O         23.1070   20.3630   63.6110 O.2    90  ASP90      -0.2864
    117  CB        25.3970   21.8060   61.4560 C.3    90  ASP90       0.1436
    118  CG        25.1960   20.5150   60.6500 C.2    90  ASP90       0.3671
    119  OD1       24.5180   19.5670   61.1230 O.co2  90  ASP90      -0.2456
    120  OD2       25.6930   20.3640   59.5120 O.co2  90  ASP90      -0.2456
    121  N         22.0340   18.1100   60.6660 N.3    93  THR93      -0.1218
    122  CA        22.2210   16.7840   61.2750 C.3    93  THR93       0.1862
    123  C         21.4110   16.6230   62.5720 C.2    93  THR93       0.2287
    124  O         20.8670   15.5470   62.8490 O.2    93  THR93      -0.2866
    125  CB        23.7310   16.4800   61.5100 C.3    93  THR93       0.1770
    126  OG1       24.4410   16.5690   60.2690 O.3    93  THR93      -0.2211
    127  CG2       23.9490   15.0190   61.9170 C.3    93  THR93       0.0375
    128  N         22.8020   24.3530   57.7300 N.3   135  GLN135     -0.1231
    129  CA        24.2030   23.9040   57.7330 C.3   135  GLN135      0.1698
    130  C         25.1400   24.9250   58.3660 C.2   135  GLN135      0.2592
    131  O         26.2420   24.5880   58.7970 O.2   135  GLN135     -0.2718
    132  CB        24.6940   23.6140   56.3190 C.3   135  GLN135      0.0381
    133  CG        24.3640   22.2270   55.7950 C.3   135  GLN135      0.0905
    134  CD        23.2500   22.2310   54.7610 C.2   135  GLN135      0.2608
    135  OE1       23.1290   23.1800   53.9760 O.2   135  GLN135     -0.2717
    136  NE2       22.4450   21.1670   54.7450 N.am  135  GLN135     -0.0878
    137  N         24.7080   26.1830   58.3880 N.am  136  ASN136     -0.1974
    138  CA        25.5160   27.2660   58.9370 C.3   136  ASN136      0.1688
    139  C         25.1280   27.6040   60.3720 C.2   136  ASN136      0.2292
    140  O         25.6890   28.5300   60.9660 O.2   136  ASN136     -0.2864
    141  CB        25.4300   28.5190   58.0520 C.3   136  ASN136      0.1181
    142  CG        26.2480   28.3980   56.7680 C.2   136  ASN136      0.2629
    143  OD1       27.0740   27.4910   56.6240 O.2   136  ASN136     -0.2716
    144  ND2       26.0230   29.3230   55.8270 N.am  136  ASN136     -0.0877
    145  N         25.1590   26.1740   64.0260 N.3   138  LEU138     -0.1245
    146  CA        25.7290   25.1080   64.8480 C.3   138  LEU138      0.1561
    147  C         25.0920   25.0690   66.2380 C.2   138  LEU138      0.2260
    148  O         24.6820   26.0980   66.7670 O.2   138  LEU138     -0.2867
    149  CB        27.2550   25.2440   64.9320 C.3   138  LEU138      0.0270
    150  CG        28.0130   25.4940   63.6190 C.3   138  LEU138      0.0019
    151  CD1       29.4790   25.6920   63.8970 C.3   138  LEU138      0.0001
    152  CD2       27.8190   24.3660   62.6230 C.3   138  LEU138      0.0001
    153  N         27.7270   30.3340   62.0020 N.3   148  ALA148     -0.1231
    154  CA        29.0300   30.0070   61.4500 C.3   148  ALA148      0.1694
    155  C         29.1710   30.5420   60.0330 C.2   148  ALA148      0.2592
    156  O         28.2620   31.1780   59.5160 O.2   148  ALA148     -0.2718
    157  CB        29.2410   28.5020   61.4770 C.3   148  ALA148      0.0304
    158  N         30.3240   30.2860   59.4190 N.am  149  ASP149     -0.1974
    159  CA        30.5770   30.6290   58.0200 C.3   149  ASP149      0.1709
    160  C         30.1920   32.0750   57.6620 C.2   149  ASP149      0.2293
    161  O         29.0470   32.3550   57.2900 O.2   149  ASP149     -0.2864
    162  CB        29.8810   29.6260   57.0870 C.3   149  ASP149      0.1436
    163  CG        30.4800   29.6270   55.6870 C.2   149  ASP149      0.3671
    164  OD1       30.8630   30.7210   55.1800 O.co2 149  ASP149     -0.2456
    165  OD2       30.6190   28.5750   55.0230 O.co2 149  ASP149     -0.2456
@<TRIPOS>BOND
     1   135   134    2
     2    12    11    2
     3    11    10    1
     4   136   134   am
     5   134   133    1
     6   165   163   ar
     7   164   163   ar
     8   163   162    1
     9    10     9    1
    10   133   132    1
    11   144   142   am
    12    42    41    1
    13    43    44    1
    14    41    40    1
    15    13    14    1
    16    50    49   ar
    17   132   129    1
    18   143   142    2
    19     9     3   am
    20    47    44    1
    21    47    48    1
    22   142   141    1
    23    39    40    1
    24    39    38    1
    25   162   159    1
    26    44    45    1
    27    36    37    2
    28    36    35    1
    29   161   160    2
    30    49    48    1
    31    49    51   ar
    32    19    17    1
    33    14    17    1
    34    14    15    1
    35   160   159    1
    36   128   129    1
    37   129   130    1
    38    16    15    2
    39     3     4    2
    40     3     2    1
    41   159   158    1
    42   141   138    1
    43    17    18    1
    44    35    38    1
    45    35    34    1
    46   130   137   am
    47   130   131    2
    48   137   138    1
    49     1     2    1
    50    45    46    2
    51     2     5    1
    52   138   139    1
    53   158   155   am
    54   120   118   ar
    55   156   155    2
    56   155   154    1
    57   126   125    1
    58     5     6    1
    59     5     7    1
    60   139   140    2
    61   118   119   ar
    62   118   117    1
    63   121   122    1
    64     6     8    1
    65    67    69   ar
    66    67    65   ar
    67    69    68   ar
    68   122   125    1
    69   122   123    1
    70   154   157    1
    71   154   153    1
    72   117   114    1
    73   125   127    1
    74    65    64   ar
    75    68    66   ar
    76    20    21    1
    77   123   124    2
    78   152   150    1
    79   114   115    1
    80   114   113    1
    81   115   116    2
    82    32    31    2
    83    31    30    1
    84    66    64   ar
    85    64    63    1
    86   113   106   am
    87   150   151    1
    88   150   149    1
    89    21    22    1
    90    21    24    1
    91    23    22    2
    92   145   146    1
    93    57    56    1
    94    33    30    1
    95    30    29    1
    96    24    25    1
    97    63    60    1
    98    59    60    1
    99   146   149    1
   100   146   147    1
   101   106   107    2
   102   106   105    1
   103    56    58    1
   104    56    53    1
   105    60    61    1
   106   109   108    1
   107   109   110    1
   108   105   108    1
   109   105   104    1
   110    25    26    1
   111    88    86   ar
   112    88    87   ar
   113    86    84   ar
   114   112   110   am
   115   147   148    2
   116    26    27    1
   117    52    53    1
   118    92    91    2
   119   110   111    2
   120    55    54    2
   121    99    98    2
   122   104    98   am
   123    53    54    1
   124    61    62    2
   125    61    70   am
   126    73    72    2
   127    98    97    1
   128    87    85   ar
   129    84    83    1
   130    84    85   ar
   131    91    90    1
   132    91    96   am
   133    70    71    1
   134    93    95    1
   135    93    90    1
   136    93    94    1
   137    89    90    1
   138    89    81   am
   139    27    28    1
   140    72    79   am
   141    72    71    1
   142    80    83    1
   143    80    79    1
   144    80    81    1
   145    97    96    1
   146    97   100    1
   147    81    82    2
   148    71    74    1
   149    75    74    1
   150    75    76    1
   151   100   101    1
   152    78    76   ar
   153    76    77   ar
   154   101   103   ar
   155   101   102   ar
