@<TRIPOS>MOLECULE
tmp/2f2hF02.pdb
 94 94 0 0 0
SMALL
GASTEIGER

@<TRIPOS>ATOM
      1  N        164.5380  145.6460  146.5050 N.3   267  TRP267     -0.1241
      2  CA       165.6770  145.1560  145.7130 C.3   267  TRP267      0.1605
      3  C        165.2470  144.3030  144.5220 C.2   267  TRP267      0.2264
      4  O        165.9450  144.2400  143.5100 O.2   267  TRP267     -0.2867
      5  CB       166.6820  144.4020  146.5670 C.3   267  TRP267      0.0550
      6  CG       166.1570  143.2230  147.3340 C.ar  267  TRP267      0.0003
      7  CD1      165.7850  143.1870  148.6380 C.ar  267  TRP267      0.0946
      8  CD2      166.0140  141.8720  146.8410 C.ar  267  TRP267      0.0152
      9  NE1      165.4420  141.8970  149.0070 N.ar  267  TRP267     -0.2442
     10  CE2      165.5780  141.0750  147.9230 C.ar  267  TRP267      0.0810
     11  CE3      166.2950  141.2520  145.6130 C.ar  267  TRP267      0.0012
     12  CZ2      165.3320  139.7190  147.7950 C.ar  267  TRP267      0.0191
     13  CZ3      166.0660  139.9040  145.4960 C.ar  267  TRP267      0.0001
     14  CH2      165.6010  139.1420  146.5920 C.ar  267  TRP267      0.0015
     15  N        171.7740  143.4600  140.2730 N.3   301  HIS301     -0.1241
     16  CA       171.2320  143.3460  141.6280 C.3   301  HIS301      0.1621
     17  C        170.9660  141.9470  142.0910 C.2   301  HIS301      0.2264
     18  O        171.2180  141.6550  143.2520 O.2   301  HIS301     -0.2867
     19  CB       169.9750  144.2190  141.7400 C.3   301  HIS301      0.0745
     20  CG       170.2590  145.6270  141.3420 C.ar  301  HIS301      0.0817
     21  ND1      169.8620  146.1480  140.1360 N.ar  301  HIS301     -0.2268
     22  CD2      171.0470  146.5620  141.9160 C.ar  301  HIS301      0.1154
     23  CE1      170.3530  147.3650  140.0010 C.ar  301  HIS301      0.1986
     24  NE2      171.0690  147.6450  141.0760 N.ar  301  HIS301     -0.2212
     25  N        177.7740  137.3930  146.8080 N.3   336  LYS336     -0.1231
     26  CA       177.0100  138.3190  147.6110 C.3   336  LYS336      0.1693
     27  C        177.8490  139.5760  147.8990 C.2   336  LYS336      0.2592
     28  O        177.3650  140.6910  147.8460 O.2   336  LYS336     -0.2718
     29  CB       176.7190  137.6020  148.9150 C.3   336  LYS336      0.0285
     30  CG       175.3650  137.7600  149.4820 C.3   336  LYS336      0.0035
     31  CD       174.4850  136.5200  149.3500 C.3   336  LYS336      0.0206
     32  CE       173.5700  136.4870  150.5470 C.3   336  LYS336      0.1093
     33  NZ       172.2770  137.1000  150.5050 N.3   336  LYS336     -0.1314
     34  N        179.1180  139.3440  148.2230 N.am  337  ALA337     -0.1966
     35  CA       180.0810  140.4170  148.5260 C.3   337  ALA337      0.1728
     36  C        180.2820  141.3780  147.3610 C.2   337  ALA337      0.2616
     37  O        180.8490  142.4730  147.5160 O.2   337  ALA337     -0.2715
     38  CB       181.3920  139.8190  148.8840 C.3   337  ALA337      0.0334
     39  N        179.8210  140.9740  146.1890 N.am  338  LYS338     -0.1963
     40  CA       179.7820  141.8690  145.0510 C.3   338  LYS338      0.1728
     41  C        178.5060  142.6710  145.0090 C.2   338  LYS338      0.2617
     42  O        178.2900  143.3830  144.0590 O.2   338  LYS338     -0.2715
     43  CB       180.0100  141.0940  143.7440 C.3   338  LYS338      0.0311
     44  CG       181.4060  140.5140  143.7370 C.3   338  LYS338      0.0038
     45  CD       181.7510  139.5720  142.6100 C.3   338  LYS338      0.0206
     46  CE       183.2980  139.4530  142.5350 C.3   338  LYS338      0.1093
     47  NZ       183.7320  138.9110  141.2560 N.3   338  LYS338     -0.1314
     48  N        177.6890  142.6040  146.0590 N.am  339  GLY339     -0.1940
     49  CA       176.4970  143.4030  146.1470 C.3   339  GLY339      0.2014
     50  C        175.3820  142.7890  145.3200 C.2   339  GLY339      0.2639
     51  O        174.6970  143.5190  144.5530 O.2   339  GLY339     -0.2714
     52  N        175.2200  141.4660  145.4660 N.am  340  LEU340     -0.1963
     53  CA       174.1780  140.7230  144.8020 C.3   340  LEU340      0.1728
     54  C        173.2980  139.9670  145.7740 C.2   340  LEU340      0.2616
     55  O        173.7840  139.3670  146.7690 O.2   340  LEU340     -0.2715
     56  CB       174.7710  139.7050  143.8550 C.3   340  LEU340      0.0311
     57  CG       175.5020  140.3000  142.6710 C.3   340  LEU340      0.0022
     58  CD1      176.2960  139.1700  142.0630 C.3   340  LEU340      0.0001
     59  CD2      174.5020  140.9070  141.7240 C.3   340  LEU340      0.0001
     60  N        172.0040  139.9840  145.4300 N.am  341  LYS341     -0.1977
     61  CA       171.0680  139.0110  145.9520 C.3   341  LYS341      0.1596
     62  C        171.1280  137.7120  145.1290 C.2   341  LYS341      0.2287
     63  O        171.4110  137.7420  143.9330 O.2   341  LYS341     -0.2864
     64  CB       169.6520  139.6100  145.9470 C.3   341  LYS341      0.0298
     65  CG       169.5230  140.7870  146.8990 C.3   341  LYS341      0.0038
     66  CD       169.3840  140.3010  148.3460 C.3   341  LYS341      0.0206
     67  CE       169.1900  141.4440  149.2810 C.3   341  LYS341      0.1093
     68  NZ       169.1140  140.8950  150.6500 N.3   341  LYS341     -0.1314
     69  N        170.7800  151.7440  142.1370 N.3   677  ARG677     -0.1231
     70  CA       170.0340  150.7100  142.8080 C.3   677  ARG677      0.1679
     71  C        168.6130  151.1500  143.1090 C.2   677  ARG677      0.2434
     72  O        168.3810  152.3400  143.2490 O.2   677  ARG677     -0.2733
     73  CB       170.7710  150.2970  144.0690 C.3   677  ARG677      0.0321
     74  CG       170.8590  151.3630  145.0900 C.3   677  ARG677      0.0489
     75  CD       171.6190  150.7820  146.3010 C.3   677  ARG677      0.2205
     76  NE       171.3810  151.6080  147.4660 N.pl3 677  ARG677     -0.0865
     77  CZ       172.1770  152.5830  147.8880 C.cat 677  ARG677      0.5346
     78  NH1      173.3150  152.8830  147.2830 N.pl3 677  ARG677      0.1354
     79  NH2      171.8060  153.2670  148.9310 N.pl3 677  ARG677      0.1354
     80  N        167.6580  150.1990  143.1460 N.am  678  PRO678     -0.2718
     81  CA       166.2790  150.5320  143.4660 C.3   678  PRO678      0.1535
     82  C        165.9490  150.8460  144.9130 C.2   678  PRO678      0.2598
     83  O        164.9710  151.5670  145.1720 O.2   678  PRO678     -0.2715
     84  CB       165.4990  149.2920  142.9990 C.3   678  PRO678      0.0310
     85  CG       166.4870  148.1660  143.0520 C.3   678  PRO678      0.0237
     86  CD       167.8050  148.7860  142.7420 C.3   678  PRO678      0.0939
     87  N        166.7060  150.2720  145.8340 N.am  679  ASP679     -0.1972
     88  CA       166.4310  150.4470  147.2500 C.3   679  ASP679      0.1709
     89  C        167.3310  151.5940  147.7870 C.2   679  ASP679      0.2293
     90  O        168.5250  151.4030  148.0720 O.2   679  ASP679     -0.2864
     91  CB       166.6450  149.1120  148.0130 C.3   679  ASP679      0.1436
     92  CG       166.1520  149.1610  149.4440 C.2   679  ASP679      0.3671
     93  OD1      166.2720  148.1600  150.1790 O.co2 679  ASP679     -0.2456
     94  OD2      165.6510  150.2030  149.8530 O.co2 679  ASP679     -0.2456
@<TRIPOS>BOND
     1    23    21   ar
     2    23    24   ar
     3    21    20   ar
     4    15    16    1
     5    24    22   ar
     6    47    46    1
     7    20    19    1
     8    20    22   ar
     9    16    19    1
    10    16    17    1
    11    59    57    1
    12    58    57    1
    13    17    18    2
    14    69    70    1
    15    46    45    1
    16    45    44    1
    17    57    56    1
    18    86    85    1
    19    86    80    1
    20    70    71    1
    21    70    73    1
    22    84    85    1
    23    84    81    1
    24    71    80   am
    25    71    72    2
    26    80    81    1
    27    81    82    1
    28     4     3    2
    29    44    43    1
    30    43    40    1
    31    56    53    1
    32    63    62    2
    33    42    41    2
    34    73    74    1
    35     3     2    1
    36    51    50    2
    37    53    52    1
    38    53    54    1
    39    82    83    2
    40    82    87   am
    41    41    40    1
    42    41    48   am
    43    40    39    1
    44    74    75    1
    45    62    61    1
    46    50    52   am
    47    50    49    1
    48    60    54   am
    49    60    61    1
    50    13    11   ar
    51    13    14   ar
    52    11     8   ar
    53     2     1    1
    54     2     5    1
    55    54    55    2
    56    87    88    1
    57    64    61    1
    58    64    65    1
    59    48    49    1
    60    39    36   am
    61    75    76    1
    62     5     6    1
    63    14    12   ar
    64    25    26    1
    65     8     6   ar
    66     8    10   ar
    67    65    66    1
    68    88    89    1
    69    88    91    1
    70    78    77    1
    71     6     7   ar
    72    36    37    2
    73    36    35    1
    74    76    77    2
    75    26    27    1
    76    26    29    1
    77    89    90    2
    78    12    10   ar
    79    28    27    2
    80    77    79    1
    81    27    34   am
    82    10     9   ar
    83    91    92    1
    84    34    35    1
    85    66    67    1
    86    35    38    1
    87     7     9   ar
    88    29    30    1
    89    67    68    1
    90    31    30    1
    91    31    32    1
    92    92    94   ar
    93    92    93   ar
    94    33    32    1
