@<TRIPOS>MOLECULE
tmp/2f2hA00.pdb
 176 172 0 0 0
SMALL
GASTEIGER

@<TRIPOS>ATOM
      1  N        149.7460   71.1690  132.7480 N.3   185  ASP185     -0.1239
      2  CA       149.4940   69.7360  132.6420 C.3   185  ASP185      0.1674
      3  C        149.1610   69.4070  131.1820 C.2   185  ASP185      0.2266
      4  O        147.9850   69.4430  130.8270 O.2   185  ASP185     -0.2867
      5  CB       148.3200   69.3460  133.5290 C.3   185  ASP185      0.1410
      6  CG       148.0340   67.8570  133.5230 C.2   185  ASP185      0.3668
      7  OD1      148.7470   67.1080  132.8300 O.co2 185  ASP185     -0.2456
      8  OD2      147.0890   67.4380  134.2580 O.co2 185  ASP185     -0.2456
      9  N        146.0500   52.5310  137.9730 N.3   277  PHE277     -0.1227
     10  CA       145.1360   53.6410  138.2520 C.3   277  PHE277      0.1736
     11  C        143.6860   53.1530  138.4200 C.2   277  PHE277      0.2596
     12  O        143.1490   53.1520  139.5230 O.2   277  PHE277     -0.2718
     13  CB       145.3140   54.7160  137.1630 C.3   277  PHE277      0.0547
     14  CG       144.4370   55.9410  137.3210 C.ar  277  PHE277     -0.0202
     15  CD1      144.0040   56.3830  138.5650 C.ar  277  PHE277     -0.0042
     16  CD2      144.0580   56.6760  136.1740 C.ar  277  PHE277     -0.0042
     17  CE1      143.1890   57.5040  138.6740 C.ar  277  PHE277     -0.0003
     18  CE2      143.2470   57.8150  136.2800 C.ar  277  PHE277     -0.0003
     19  CZ       142.8100   58.2240  137.5360 C.ar  277  PHE277     -0.0000
     20  N        143.0800   52.7120  137.3210 N.am  278  THR278     -0.1953
     21  CA       141.6350   52.4790  137.2630 C.3   278  THR278      0.1897
     22  C        141.2890   51.0350  137.4110 C.2   278  THR278      0.2313
     23  O        140.1120   50.6730  137.2570 O.2   278  THR278     -0.2863
     24  CB       141.0020   53.0380  135.9570 C.3   278  THR278      0.1794
     25  OG1      141.7290   52.5670  134.8040 O.3   278  THR278     -0.2208
     26  CG2      141.0490   54.5530  135.9880 C.3   278  THR278      0.0378
     27  N        147.7720   54.0710  144.3900 N.3   306  ASP306     -0.1225
     28  CA       147.4170   55.2050  143.5400 C.3   306  ASP306      0.1805
     29  C        146.1110   55.8430  143.9860 C.2   306  ASP306      0.2598
     30  O        145.6530   55.5740  145.0830 O.2   306  ASP306     -0.2718
     31  CB       147.4300   54.8210  142.0540 C.3   306  ASP306      0.1424
     32  CG       147.8680   55.9980  141.1250 C.2   306  ASP306      0.3668
     33  OD1      148.9420   56.6400  141.3280 O.co2 306  ASP306     -0.2456
     34  OD2      147.1210   56.2300  140.1440 O.co2 306  ASP306     -0.2456
     35  N        145.5490   56.7220  143.1650 N.am  307  CYS307     -0.1970
     36  CA       144.4400   57.6300  143.5660 C.3   307  CYS307      0.1712
     37  C        143.2950   56.9880  144.3440 C.2   307  CYS307      0.2296
     38  O        142.7630   57.6040  145.2610 O.2   307  CYS307     -0.2864
     39  CB       143.8220   58.2390  142.3150 C.3   307  CYS307      0.0983
     40  SG       145.0380   59.1030  141.3130 S.3   307  CYS307     -0.0798
     41  N        149.8050   58.0190  146.6830 N.3   345  TRP345     -0.1241
     42  CA       149.4850   59.1460  145.8350 C.3   345  TRP345      0.1605
     43  C        148.9010   60.2760  146.6640 C.2   345  TRP345      0.2264
     44  O        148.0150   60.0300  147.4780 O.2   345  TRP345     -0.2867
     45  CB       148.4470   58.7170  144.8250 C.3   345  TRP345      0.0550
     46  CG       148.1110   59.7620  143.8500 C.ar  345  TRP345      0.0003
     47  CD1      148.7330   59.9950  142.6380 C.ar  345  TRP345      0.0946
     48  CD2      147.0700   60.7150  143.9510 C.ar  345  TRP345      0.0152
     49  NE1      148.1330   61.0480  141.9970 N.ar  345  TRP345     -0.2442
     50  CE2      147.1140   61.5160  142.7850 C.ar  345  TRP345      0.0810
     51  CE3      146.0790   60.9810  144.9160 C.ar  345  TRP345      0.0012
     52  CZ2      146.2060   62.5660  142.5690 C.ar  345  TRP345      0.0191
     53  CZ3      145.1850   62.0030  144.6820 C.ar  345  TRP345      0.0001
     54  CH2      145.2620   62.7960  143.5520 C.ar  345  TRP345      0.0015
     55  N        139.5960   67.6080  136.7400 N.3   380  TRP380     -0.1241
     56  CA       140.1650   66.5850  137.6730 C.3   380  TRP380      0.1605
     57  C        139.1080   66.0190  138.6100 C.2   380  TRP380      0.2264
     58  O        138.7770   64.8230  138.5190 O.2   380  TRP380     -0.2867
     59  CB       141.4050   67.0700  138.4230 C.3   380  TRP380      0.0550
     60  CG       142.0810   65.9500  139.2030 C.ar  380  TRP380      0.0003
     61  CD1      142.3030   65.9170  140.5360 C.ar  380  TRP380      0.0946
     62  CD2      142.5700   64.6910  138.6820 C.ar  380  TRP380      0.0152
     63  NE1      142.9210   64.7420  140.8860 N.ar  380  TRP380     -0.2442
     64  CE2      143.0590   63.9510  139.7770 C.ar  380  TRP380      0.0810
     65  CE3      142.6340   64.1190  137.3960 C.ar  380  TRP380      0.0012
     66  CZ2      143.6330   62.6830  139.6330 C.ar  380  TRP380      0.0191
     67  CZ3      143.1390   62.8410  137.2560 C.ar  380  TRP380      0.0001
     68  CH2      143.6820   62.1410  138.3740 C.ar  380  TRP380      0.0015
     69  N        153.8960   60.2660  146.3250 N.3   414  LYS414     -0.1245
     70  CA       153.9080   60.8010  144.9950 C.3   414  LYS414      0.1561
     71  C        153.2030   62.1780  145.0710 C.2   414  LYS414      0.2260
     72  O        151.9860   62.2430  145.2420 O.2   414  LYS414     -0.2867
     73  CB       153.2490   59.8910  143.9630 C.3   414  LYS414      0.0271
     74  CG       153.4090   60.4650  142.5520 C.3   414  LYS414      0.0035
     75  CD       152.3290   59.9580  141.6100 C.3   414  LYS414      0.0206
     76  CE       152.5940   60.4700  140.1760 C.3   414  LYS414      0.1093
     77  NZ       151.6110   59.9220  139.2060 N.3   414  LYS414     -0.1314
     78  N        151.8710   64.5100  143.2120 N.3   416  ASP416     -0.1225
     79  CA       151.3030   64.6570  141.8910 C.3   416  ASP416      0.1805
     80  C        150.6580   66.0390  141.6870 C.2   416  ASP416      0.2597
     81  O        150.3870   66.7760  142.6530 O.2   416  ASP416     -0.2718
     82  CB       150.3340   63.5170  141.6570 C.3   416  ASP416      0.1424
     83  CG       150.3090   63.0670  140.2160 C.2   416  ASP416      0.3668
     84  OD1      150.8880   63.7600  139.3610 O.co2 416  ASP416     -0.2456
     85  OD2      149.7000   62.0260  139.9400 O.co2 416  ASP416     -0.2456
     86  N        150.4810   66.4030  140.4130 N.am  417  PHE417     -0.1976
     87  CA       149.8910   67.6750  140.0090 C.3   417  PHE417      0.1639
     88  C        150.6740   68.8910  140.5520 C.2   417  PHE417      0.2290
     89  O        151.9080   68.7980  140.7570 O.2   417  PHE417     -0.2864
     90  CB       148.3760   67.6910  140.3500 C.3   417  PHE417      0.0560
     91  CG       147.5410   66.6640  139.5630 C.ar  417  PHE417     -0.0200
     92  CD1      147.6040   65.3140  139.8560 C.ar  417  PHE417     -0.0042
     93  CD2      146.7040   67.0700  138.5410 C.ar  417  PHE417     -0.0042
     94  CE1      146.8790   64.3740  139.1730 C.ar  417  PHE417     -0.0003
     95  CE2      145.9630   66.1240  137.8280 C.ar  417  PHE417     -0.0003
     96  CZ       146.0400   64.7640  138.1670 C.ar  417  PHE417     -0.0000
     97  N        148.2900   73.5310  137.4600 N.3   420  ARG420     -0.1245
     98  CA       147.2190   74.3680  136.8890 C.3   420  ARG420      0.1563
     99  C        146.7090   75.2940  137.9370 C.2   420  ARG420      0.2260
    100  O        145.5770   75.1600  138.3920 O.2   420  ARG420     -0.2867
    101  CB       146.0530   73.5560  136.3010 C.3   420  ARG420      0.0307
    102  CG       146.3930   72.7110  135.1460 C.3   420  ARG420      0.0489
    103  CD       145.1360   72.1750  134.4750 C.3   420  ARG420      0.2205
    104  NE       145.4840   71.4150  133.2700 N.pl3 420  ARG420     -0.0865
    105  CZ       144.7690   70.4290  132.7270 C.cat 420  ARG420      0.5346
    106  NH1      143.5950   70.0220  133.2460 N.pl3 420  ARG420      0.1354
    107  NH2      145.2460   69.8410  131.6400 N.pl3 420  ARG420      0.1354
    108  N        155.6320   65.3610  140.3040 N.3   466  ARG466     -0.1245
    109  CA       155.3000   65.6600  138.8650 C.3   466  ARG466      0.1563
    110  C        155.6460   67.0860  138.4340 C.2   466  ARG466      0.2260
    111  O        155.9430   67.3290  137.2650 O.2   466  ARG466     -0.2867
    112  CB       153.8270   65.3530  138.5450 C.3   466  ARG466      0.0307
    113  CG       153.6090   65.3110  137.0500 C.3   466  ARG466      0.0489
    114  CD       152.2390   64.8230  136.6300 C.3   466  ARG466      0.2205
    115  NE       151.2330   65.8740  136.7520 N.pl3 466  ARG466     -0.0865
    116  CZ       149.9630   65.7380  136.3660 C.cat 466  ARG466      0.5346
    117  NH1      149.5160   64.5910  135.9280 N.pl3 466  ARG466      0.1354
    118  NH2      149.1280   66.7510  136.4390 N.pl3 466  ARG466      0.1354
    119  N        159.5140   62.9710  138.4150 N.3   479  TRP479     -0.1241
    120  CA       158.9390   61.8760  137.6970 C.3   479  TRP479      0.1605
    121  C        158.3610   62.3960  136.3680 C.2   479  TRP479      0.2264
    122  O        157.5400   63.3070  136.3690 O.2   479  TRP479     -0.2867
    123  CB       157.8710   61.2660  138.5760 C.3   479  TRP479      0.0550
    124  CG       157.0250   60.2600  137.8660 C.ar  479  TRP479      0.0003
    125  CD1      157.3670   58.9670  137.6050 C.ar  479  TRP479      0.0946
    126  CD2      155.7070   60.4460  137.3450 C.ar  479  TRP479      0.0152
    127  NE1      156.3440   58.3340  136.9460 N.ar  479  TRP479     -0.2442
    128  CE2      155.3030   59.2110  136.7800 C.ar  479  TRP479      0.0810
    129  CE3      154.8150   61.5150  137.3210 C.ar  479  TRP479      0.0012
    130  CZ2      154.0370   59.0180  136.1900 C.ar  479  TRP479      0.0191
    131  CZ3      153.5500   61.3230  136.7390 C.ar  479  TRP479      0.0001
    132  CH2      153.1790   60.0830  136.1650 C.ar  479  TRP479      0.0015
    133  N        152.9880   61.2940  132.2970 N.3   482  ASP482     -0.1239
    134  CA       152.1320   60.3180  131.5950 C.3   482  ASP482      0.1674
    135  C        152.5450   60.1300  130.1070 C.2   482  ASP482      0.2266
    136  O        152.5520   61.0900  129.3160 O.2   482  ASP482     -0.2867
    137  CB       150.6500   60.8000  131.6720 C.3   482  ASP482      0.1410
    138  CG       150.1950   61.0940  133.1280 C.2   482  ASP482      0.3668
    139  OD1      150.3000   60.1770  133.9830 O.co2 482  ASP482     -0.2456
    140  OD2      149.7760   62.2460  133.3970 O.co2 482  ASP482     -0.2456
    141  N        151.8950   54.4330  130.3260 N.3   515  PHE515     -0.1241
    142  CA       150.6620   54.4720  131.1060 C.3   515  PHE515      0.1605
    143  C        149.4690   53.8380  130.3320 C.2   515  PHE515      0.2264
    144  O        148.6140   53.1740  130.9150 O.2   515  PHE515     -0.2867
    145  CB       150.4060   55.9580  131.4040 C.3   515  PHE515      0.0534
    146  CG       149.3030   56.2370  132.3900 C.ar  515  PHE515     -0.0203
    147  CD1      148.3860   57.2660  132.1390 C.ar  515  PHE515     -0.0042
    148  CD2      149.2000   55.5340  133.5900 C.ar  515  PHE515     -0.0042
    149  CE1      147.3530   57.5690  133.0550 C.ar  515  PHE515     -0.0003
    150  CE2      148.1730   55.8200  134.5120 C.ar  515  PHE515     -0.0003
    151  CZ       147.2530   56.8380  134.2420 C.ar  515  PHE515     -0.0000
    152  N        153.8500   51.0100  136.4060 N.3   540  HIS540     -0.1241
    153  CA       152.5780   51.6750  136.6990 C.3   540  HIS540      0.1621
    154  C        151.7270   51.7840  135.4350 C.2   540  HIS540      0.2264
    155  O        152.1140   52.4530  134.4610 O.2   540  HIS540     -0.2867
    156  CB       152.8010   53.0920  137.2380 C.3   540  HIS540      0.0745
    157  CG       151.5340   53.8940  137.3970 C.ar  540  HIS540      0.0817
    158  ND1      150.6030   53.6300  138.3850 N.ar  540  HIS540     -0.2268
    159  CD2      151.0350   54.9270  136.6760 C.ar  540  HIS540      0.1154
    160  CE1      149.5870   54.4650  138.2610 C.ar  540  HIS540      0.1986
    161  NE2      149.8260   55.2670  137.2350 N.ar  540  HIS540     -0.2212
    162  N        147.4900   51.9520  133.6910 N.3   542  SER542     -0.1202
    163  CA       146.2460   52.6940  133.6780 C.3   542  SER542      0.2020
    164  C        145.1330   51.7580  134.1830 C.2   542  SER542      0.2618
    165  O        144.7420   51.8350  135.3620 O.2   542  SER542     -0.2717
    166  CB       146.0180   53.1790  132.2360 C.3   542  SER542      0.2103
    167  OG       144.6730   53.3440  131.9240 O.3   542  SER542     -0.2182
    168  N        144.6880   50.8280  133.3250 N.am  543  LYS543     -0.1979
    169  CA       143.5100   49.9990  133.6150 C.3   543  LYS543      0.1596
    170  C        143.8690   48.5600  133.9900 C.2   543  LYS543      0.2287
    171  O        142.9670   47.7480  134.2570 O.2   543  LYS543     -0.2864
    172  CB       142.4850   50.0510  132.4480 C.3   543  LYS543      0.0298
    173  CG       142.4850   51.3930  131.6450 C.3   543  LYS543      0.0038
    174  CD       141.1630   51.7150  130.8490 C.3   543  LYS543      0.0206
    175  CE       141.3410   51.9500  129.3020 C.3   543  LYS543      0.1093
    176  NZ       142.0600   53.2020  128.7950 N.3   543  LYS543     -0.1314
@<TRIPOS>BOND
     1   176   175    1
     2   175   174    1
     3   136   135    2
     4   135   134    1
     5   141   142    1
     6   143   144    2
     7   143   142    1
     8     4     3    2
     9   174   173    1
    10   142   145    1
    11     3     2    1
    12   145   146    1
    13   134   137    1
    14   134   133    1
    15   107   105    1
    16   173   172    1
    17   137   138    1
    18   167   166    1
    19   147   146   ar
    20   147   149   ar
    21   166   163    1
    22   146   148   ar
    23   172   169    1
    24     2     1    1
    25     2     5    1
    26   105   106    1
    27   105   104    2
    28     7     6   ar
    29   149   151   ar
    30   138   140   ar
    31   138   139   ar
    32   104   103    1
    33   168   169    1
    34   168   164   am
    35     6     5    1
    36     6     8   ar
    37   148   150   ar
    38   169   170    1
    39   163   162    1
    40   163   164    1
    41   170   171    2
    42   164   165    2
    43   151   150   ar
    44   155   154    2
    45   103   102    1
    46    25    24    1
    47   102   101    1
    48   154   153    1
    49   117   116    1
    50    24    26    1
    51    24    21    1
    52   132   130   ar
    53   132   131   ar
    54    16    18   ar
    55    16    14   ar
    56   130   128   ar
    57    18    19   ar
    58   101    98    1
    59   116   118    1
    60   116   115    2
    61   121   122    2
    62   121   120    1
    63   152   153    1
    64   114   115    1
    65   114   113    1
    66   159   161   ar
    67   159   157   ar
    68   153   156    1
    69   131   129   ar
    70    55    56    1
    71   128   127   ar
    72   128   126   ar
    73    98    97    1
    74    98    99    1
    75   127   125   ar
    76   113   112    1
    77    13    14    1
    78    13    10    1
    79   161   160   ar
    80   156   157    1
    81    67    65   ar
    82    67    68   ar
    83    23    22    2
    84    21    20    1
    85    21    22    1
    86   111   110    2
    87    14    15   ar
    88    20    11   am
    89   129   126   ar
    90   126   124   ar
    91    65    62   ar
    92   157   158   ar
    93    19    17   ar
    94   125   124   ar
    95    56    59    1
    96    56    57    1
    97   120   119    1
    98   120   123    1
    99    95    96   ar
   100    95    93   ar
   101   124   123    1
   102    99   100    2
   103     9    10    1
   104    96    94   ar
   105    10    11    1
   106   160   158   ar
   107    68    66   ar
   108    11    12    2
   109    59    60    1
   110   110   109    1
   111    58    57    2
   112    93    91   ar
   113   112   109    1
   114    15    17   ar
   115    62    60   ar
   116    62    64   ar
   117   109   108    1
   118    94    92   ar
   119    60    61   ar
   120    77    76    1
   121    84    83   ar
   122    91    92   ar
   123    91    90    1
   124    66    64   ar
   125    64    63   ar
   126    85    83   ar
   127    87    90    1
   128    87    86    1
   129    87    88    1
   130    34    32   ar
   131    76    75    1
   132    83    82    1
   133    86    80   am
   134    61    63   ar
   135    88    89    2
   136    32    33   ar
   137    32    31    1
   138    40    39    1
   139    75    74    1
   140    82    79    1
   141    80    79    1
   142    80    81    2
   143    79    78    1
   144    49    47   ar
   145    49    50   ar
   146    31    28    1
   147    39    36    1
   148    74    73    1
   149    52    50   ar
   150    52    54   ar
   151    47    46   ar
   152    50    48   ar
   153    35    36    1
   154    35    29   am
   155    28    29    1
   156    28    27    1
   157    54    53   ar
   158    36    37    1
   159    46    48   ar
   160    46    45    1
   161    48    51   ar
   162    73    70    1
   163    29    30    2
   164    37    38    2
   165    53    51   ar
   166    45    42    1
   167    70    71    1
   168    70    69    1
   169    71    72    2
   170    42    43    1
   171    42    41    1
   172    43    44    2
