@<TRIPOS>MOLECULE
tmp/2f2hF00.pdb
 84 81 0 0 0
SMALL
GASTEIGER

@<TRIPOS>ATOM
      1  N        162.2970  163.0380  126.7570 N.3   640  HIS640     -0.1241
      2  CA       162.4750  163.8410  125.5400 C.3   640  HIS640      0.1621
      3  C        161.7450  165.1900  125.6690 C.2   640  HIS640      0.2264
      4  O        161.9970  166.1100  124.9220 O.2   640  HIS640     -0.2867
      5  CB       161.9190  163.1020  124.2870 C.3   640  HIS640      0.0745
      6  CG       162.6930  161.8850  123.9050 C.ar  640  HIS640      0.0817
      7  ND1      164.0700  161.8730  123.8240 N.ar  640  HIS640     -0.2268
      8  CD2      162.2820  160.6480  123.5330 C.ar  640  HIS640      0.1154
      9  CE1      164.4770  160.6640  123.4670 C.ar  640  HIS640      0.1986
     10  NE2      163.4090  159.9080  123.2680 N.ar  640  HIS640     -0.2212
     11  N        158.9920  166.2530  124.5980 N.3   642  ASP642     -0.1239
     12  CA       157.9770  166.6380  123.5980 C.3   642  ASP642      0.1674
     13  C        156.5490  166.3760  124.0780 C.2   642  ASP642      0.2266
     14  O        156.3120  165.4570  124.8380 O.2   642  ASP642     -0.2867
     15  CB       158.2200  165.9490  122.2890 C.3   642  ASP642      0.1410
     16  CG       158.0170  164.4430  122.3670 C.2   642  ASP642      0.3668
     17  OD1      158.9210  163.7430  122.9140 O.co2 642  ASP642     -0.2456
     18  OD2      156.9530  164.0060  121.8470 O.co2 642  ASP642     -0.2456
     19  N        152.2980  165.9090  123.1670 N.3   644  LEU644     -0.1245
     20  CA       151.3600  165.3520  122.1800 C.3   644  LEU644      0.1561
     21  C        149.9410  165.5180  122.7070 C.2   644  LEU644      0.2260
     22  O        149.6790  165.3380  123.9120 O.2   644  LEU644     -0.2867
     23  CB       151.6210  163.8600  121.9320 C.3   644  LEU644      0.0270
     24  CG       152.8780  163.4060  121.1800 C.3   644  LEU644      0.0019
     25  CD1      152.9030  161.8720  121.1520 C.3   644  LEU644      0.0001
     26  CD2      152.9580  163.9540  119.7490 C.3   644  LEU644      0.0001
     27  N        155.4460  157.2450  115.2740 N.3   652  GLN652     -0.1231
     28  CA       156.7940  157.7460  115.6040 C.3   652  GLN652      0.1698
     29  C        157.7930  156.7090  115.1310 C.2   652  GLN652      0.2592
     30  O        157.3940  155.5880  114.7890 O.2   652  GLN652     -0.2718
     31  CB       156.9210  157.9730  117.1110 C.3   652  GLN652      0.0381
     32  CG       156.1100  159.1580  117.6240 C.3   652  GLN652      0.0905
     33  CD       156.2440  159.4320  119.1020 C.2   652  GLN652      0.2608
     34  OE1      155.8670  160.5180  119.5780 O.2   652  GLN652     -0.2717
     35  NE2      156.7210  158.4590  119.8520 N.am  652  GLN652     -0.0878
     36  N        159.0660  157.0960  115.0720 N.am  653  GLN653     -0.1966
     37  CA       160.1920  156.1820  114.8090 C.3   653  GLN653      0.1733
     38  C        161.2320  156.4460  115.8980 C.2   653  GLN653      0.2616
     39  O        161.5910  157.6030  116.1390 O.2   653  GLN653     -0.2715
     40  CB       160.7970  156.3590  113.3640 C.3   653  GLN653      0.0408
     41  CG       161.8350  155.2400  112.9370 C.3   653  GLN653      0.0908
     42  CD       162.2930  155.3040  111.4170 C.2   653  GLN653      0.2608
     43  OE1      161.8600  156.1540  110.6560 O.2   653  GLN653     -0.2717
     44  NE2      163.1530  154.3970  111.0160 N.am  653  GLN653     -0.0878
     45  N        161.6880  155.3920  116.5770 N.am  654  HIS654     -0.1959
     46  CA       162.5640  155.5280  117.7180 C.3   654  HIS654      0.1787
     47  C        163.8870  154.7630  117.5230 C.2   654  HIS654      0.2620
     48  O        163.9160  153.7210  116.8950 O.2   654  HIS654     -0.2715
     49  CB       161.8790  155.0550  118.9970 C.3   654  HIS654      0.0785
     50  CG       160.8620  156.0090  119.5320 C.ar  654  HIS654      0.0821
     51  ND1      161.1200  156.8660  120.5810 N.ar  654  HIS654     -0.2267
     52  CD2      159.5830  156.2360  119.1690 C.ar  654  HIS654      0.1154
     53  CE1      160.0450  157.5900  120.8290 C.ar  654  HIS654      0.1986
     54  NE2      159.0970  157.2240  119.9850 N.ar  654  HIS654     -0.2212
     55  N        164.9880  155.3020  118.0410 N.am  655  GLY655     -0.1954
     56  CA       166.2280  154.5250  118.1360 C.3   655  GLY655      0.1869
     57  C        166.1500  153.5570  119.3100 C.2   655  GLY655      0.2309
     58  O        165.1410  153.4990  120.0220 O.2   655  GLY655     -0.2863
     59  N        167.6180  153.5570  122.1070 N.3   657  LEU657     -0.1231
     60  CA       167.5790  154.2190  123.4370 C.3   657  LEU657      0.1693
     61  C        166.2710  154.9780  123.7220 C.2   657  LEU657      0.2592
     62  O        166.2180  155.8510  124.6300 O.2   657  LEU657     -0.2718
     63  CB       168.7830  155.1440  123.6120 C.3   657  LEU657      0.0284
     64  CG       170.0380  154.2720  123.8080 C.3   657  LEU657      0.0019
     65  CD1      171.2520  154.9170  123.2830 C.3   657  LEU657      0.0001
     66  CD2      170.2270  153.9420  125.2260 C.3   657  LEU657      0.0001
     67  N        165.2170  154.6580  122.9590 N.am  658  SER658     -0.1952
     68  CA       163.9570  155.3830  123.0610 C.3   658  SER658      0.1924
     69  C        162.7650  154.4790  122.7470 C.2   658  SER658      0.2314
     70  O        162.8930  153.4740  122.0840 O.2   658  SER658     -0.2863
     71  CB       164.0040  156.5750  122.0970 C.3   658  SER658      0.2116
     72  OG       162.9440  157.4780  122.2910 O.3   658  SER658     -0.2180
     73  N        155.0990  158.2490  127.9520 N.3   662  TYR662     -0.1241
     74  CA       154.3930  159.5420  128.0180 C.3   662  TYR662      0.1605
     75  C        153.7190  159.7390  129.3680 C.2   662  TYR662      0.2264
     76  O        153.0630  158.8210  129.8930 O.2   662  TYR662     -0.2867
     77  CB       153.4260  159.6810  126.7950 C.3   662  TYR662      0.0534
     78  CG       154.1680  160.1560  125.5400 C.ar  662  TYR662     -0.0201
     79  CD1      154.4430  161.5230  125.3320 C.ar  662  TYR662     -0.0009
     80  CD2      154.6860  159.2570  124.6320 C.ar  662  TYR662     -0.0009
     81  CE1      155.1580  161.9550  124.2320 C.ar  662  TYR662      0.0417
     82  CE2      155.3940  159.6830  123.5030 C.ar  662  TYR662      0.0417
     83  CZ       155.6380  161.0480  123.3190 C.ar  662  TYR662      0.1957
     84  OH       156.3870  161.4610  122.2420 O.3   662  TYR662     -0.2866
@<TRIPOS>BOND
     1    43    42    2
     2    44    42   am
     3    42    41    1
     4    41    40    1
     5    40    37    1
     6    30    29    2
     7    37    36    1
     8    37    38    1
     9    36    29   am
    10    29    28    1
    11    27    28    1
    12    28    31    1
    13    38    39    2
    14    38    45   am
    15    45    46    1
    16    48    47    2
    17    31    32    1
    18    47    46    1
    19    47    55   am
    20    32    33    1
    21    46    49    1
    22    55    56    1
    23    56    57    1
    24    49    50    1
    25    33    34    2
    26    33    35   am
    27    52    50   ar
    28    52    54   ar
    29    57    58    2
    30    50    51   ar
    31    26    24    1
    32    54    53   ar
    33    51    53   ar
    34    25    24    1
    35    24    23    1
    36    18    16   ar
    37    23    20    1
    38    70    69    2
    39    71    72    1
    40    71    68    1
    41    59    60    1
    42    20    21    1
    43    20    19    1
    44    84    83    1
    45    15    16    1
    46    15    12    1
    47    16    17   ar
    48    21    22    2
    49    69    68    1
    50    67    68    1
    51    67    61   am
    52    10     9   ar
    53    10     8   ar
    54    65    64    1
    55    83    82   ar
    56    83    81   ar
    57    60    63    1
    58    60    61    1
    59     9     7   ar
    60    82    80   ar
    61     8     6   ar
    62    12    13    1
    63    12    11    1
    64    63    64    1
    65    61    62    2
    66    64    66    1
    67     7     6   ar
    68     6     5    1
    69    13    14    2
    70    81    79   ar
    71     5     2    1
    72    80    78   ar
    73     4     3    2
    74    79    78   ar
    75     2     3    1
    76     2     1    1
    77    78    77    1
    78    77    74    1
    79    73    74    1
    80    74    75    1
    81    75    76    2
