@<TRIPOS>MOLECULE
tmp/2f2tA00.pdb
 81 76 0 0 0
SMALL
GASTEIGER

@<TRIPOS>ATOM
      1  N          0.7110   -6.6570  -18.6770 N.3    16  VAL16      -0.1231
      2  CA         0.5970   -7.3740  -19.9520 C.3    16  VAL16       0.1692
      3  C          1.9100   -7.3810  -20.7550 C.2    16  VAL16       0.2592
      4  O          2.1420   -8.2790  -21.5720 O.2    16  VAL16      -0.2718
      5  CB        -0.5780   -6.8070  -20.8120 C.3    16  VAL16       0.0266
      6  CG1       -0.3590   -5.3350  -21.1610 C.3    16  VAL16       0.0020
      7  CG2       -0.7880   -7.6360  -22.0760 C.3    16  VAL16       0.0020
      8  N          2.7640   -6.3880  -20.5060 N.am   17  PHE17      -0.1976
      9  CA         4.0300   -6.2540  -21.2280 C.3    17  PHE17       0.1639
     10  C          5.2110   -6.9470  -20.5420 C.2    17  PHE17       0.2290
     11  O          6.3230   -6.9580  -21.0760 O.2    17  PHE17      -0.2864
     12  CB         4.3410   -4.7800  -21.5140 C.3    17  PHE17       0.0560
     13  CG         3.2180   -4.0500  -22.2050 C.ar   17  PHE17      -0.0200
     14  CD1        2.7780   -4.4540  -23.4650 C.ar   17  PHE17      -0.0042
     15  CD2        2.5970   -2.9650  -21.5950 C.ar   17  PHE17      -0.0042
     16  CE1        1.7380   -3.7880  -24.1050 C.ar   17  PHE17      -0.0003
     17  CE2        1.5530   -2.2910  -22.2310 C.ar   17  PHE17      -0.0003
     18  CZ         1.1250   -2.7050  -23.4870 C.ar   17  PHE17      -0.0000
     19  N         -7.3140   -7.9400  -19.2420 N.3    41  PRO41      -0.2102
     20  CA        -7.1300   -7.5340  -20.6390 C.3    41  PRO41       0.1504
     21  C         -6.7840   -8.6550  -21.6220 C.2    41  PRO41       0.2576
     22  O         -7.1570   -8.5690  -22.7910 O.2    41  PRO41      -0.2718
     23  CB        -5.9770   -6.5270  -20.5560 C.3    41  PRO41       0.0282
     24  CG        -6.1530   -5.9130  -19.2100 C.3    41  PRO41       0.0208
     25  CD        -6.5610   -7.0610  -18.3270 C.3    41  PRO41       0.0893
     26  N         -6.0890   -9.6880  -21.1500 N.am   42  THR42      -0.1953
     27  CA        -5.6380  -10.7790  -22.0200 C.3    42  THR42       0.1897
     28  C         -6.5860  -11.9850  -22.0700 C.2    42  THR42       0.2313
     29  O         -6.3200  -12.9510  -22.7940 O.2    42  THR42      -0.2863
     30  CB        -4.2380  -11.2850  -21.6120 C.3    42  THR42       0.1794
     31  OG1       -4.2470  -11.6430  -20.2240 O.3    42  THR42      -0.2208
     32  CG2       -3.1840  -10.2220  -21.8600 C.3    42  THR42       0.0378
     33  N         -8.1480  -13.7040  -25.5180 N.3    45  GLU45      -0.1245
     34  CA        -7.6130  -12.6600  -26.3940 C.3    45  GLU45       0.1567
     35  C         -7.8050  -12.9720  -27.8750 C.2    45  GLU45       0.2260
     36  O         -7.4830  -14.0660  -28.3410 O.2    45  GLU45      -0.2867
     37  CB        -6.1340  -12.3840  -26.0880 C.3    45  GLU45       0.0388
     38  CG        -5.5810  -11.1410  -26.7870 C.3    45  GLU45       0.1160
     39  CD        -4.1910  -10.7550  -26.3160 C.2    45  GLU45       0.3649
     40  OE1       -4.0220  -10.4870  -25.1080 O.co2  45  GLU45      -0.2457
     41  OE2       -3.2700  -10.7040  -27.1590 O.co2  45  GLU45      -0.2457
     42  N         -9.4330   -6.8400  -29.8160 N.3    52  ILE52      -0.1231
     43  CA        -8.8470   -6.7700  -28.4740 C.3    52  ILE52       0.1692
     44  C         -9.2900   -5.4840  -27.7730 C.2    52  ILE52       0.2591
     45  O         -9.7170   -5.5110  -26.6150 O.2    52  ILE52      -0.2718
     46  CB        -7.3010   -6.8510  -28.5140 C.3    52  ILE52       0.0266
     47  CG1       -6.8500   -8.2050  -29.0730 C.3    52  ILE52       0.0019
     48  CG2       -6.7070   -6.6160  -27.1190 C.3    52  ILE52       0.0020
     49  CD1       -5.3590   -8.3100  -29.3250 C.3    52  ILE52       0.0001
     50  N         -9.1980   -4.3650  -28.4880 N.am   53  ARG53      -0.1980
     51  CA        -9.6310   -3.0750  -27.9610 C.3    53  ARG53       0.1597
     52  C        -11.1150   -3.0870  -27.5890 C.2    53  ARG53       0.2287
     53  O        -11.4880   -2.6600  -26.4870 O.2    53  ARG53      -0.2864
     54  CB        -9.3370   -1.9660  -28.9720 C.3    53  ARG53       0.0334
     55  CG        -9.7850   -0.5840  -28.5380 C.3    53  ARG53       0.0492
     56  CD        -9.4210    0.4440  -29.5890 C.3    53  ARG53       0.2205
     57  NE        -9.9630    1.7670  -29.2830 N.pl3  53  ARG53      -0.0865
     58  CZ       -11.1860    2.1750  -29.6130 C.cat  53  ARG53       0.5346
     59  NH1      -12.0160    1.3620  -30.2620 N.pl3  53  ARG53       0.1354
     60  NH2      -11.5860    3.3990  -29.2920 N.pl3  53  ARG53       0.1354
     61  N        -11.8510   -5.0660  -24.4640 N.3    56  ASN56      -0.1240
     62  CA       -11.3900   -4.3490  -23.2770 C.3    56  ASN56       0.1653
     63  C        -12.2930   -3.1820  -22.8980 C.2    56  ASN56       0.2266
     64  O        -12.5590   -2.9590  -21.7170 O.2    56  ASN56      -0.2867
     65  CB        -9.9390   -3.8950  -23.4390 C.3    56  ASN56       0.1155
     66  CG        -8.9480   -4.9750  -23.0470 C.2    56  ASN56       0.2627
     67  OD1       -8.4260   -4.9670  -21.9370 O.2    56  ASN56      -0.2716
     68  ND2       -8.7000   -5.9210  -23.9490 N.am   56  ASN56      -0.0877
     69  N         -1.8770    3.0060  -22.4640 N.3    80  GLY80      -0.1225
     70  CA        -2.9960    2.0800  -22.6300 C.3    80  GLY80       0.1811
     71  C         -3.8570    2.0640  -21.3820 C.2    80  GLY80       0.2280
     72  O         -5.0900    2.1140  -21.4550 O.2    80  GLY80      -0.2866
     73  N         -7.7250    3.5530  -20.6150 N.3    84  GLU84      -0.1245
     74  CA        -8.7350    2.7790  -19.8910 C.3    84  GLU84       0.1567
     75  C         -9.3180    3.5340  -18.6980 C.2    84  GLU84       0.2260
     76  O        -10.5180    3.4340  -18.4180 O.2    84  GLU84      -0.2867
     77  CB        -8.1480    1.4320  -19.4730 C.3    84  GLU84       0.0388
     78  CG        -7.9840    0.4810  -20.6580 C.3    84  GLU84       0.1160
     79  CD        -6.7310   -0.3680  -20.5940 C.2    84  GLU84       0.3649
     80  OE1       -6.1370   -0.5040  -19.5040 O.co2  84  GLU84      -0.2457
     81  OE2       -6.3430   -0.9050  -21.6530 O.co2  84  GLU84      -0.2457
@<TRIPOS>BOND
     1    59    58    1
     2    42    43    1
     3    58    60    1
     4    58    57    2
     5    56    57    1
     6    56    55    1
     7    49    47    1
     8    47    46    1
     9    54    55    1
    10    54    51    1
    11    46    43    1
    12    46    48    1
    13    50    51    1
    14    50    44   am
    15    43    44    1
    16    36    35    2
    17    51    52    1
    18    35    34    1
    19    44    45    2
    20    52    53    2
    21    41    39   ar
    22    38    39    1
    23    38    37    1
    24    34    37    1
    25    34    33    1
    26    39    40   ar
    27    61    62    1
    28    16    18   ar
    29    16    14   ar
    30    68    66   am
    31    18    17   ar
    32    14    13   ar
    33    65    62    1
    34    65    66    1
    35    62    63    1
    36    66    67    2
    37    63    64    2
    38    29    28    2
    39    22    21    2
    40    70    69    1
    41    70    71    1
    42    17    15   ar
    43    13    15   ar
    44    13    12    1
    45     7     5    1
    46    28    27    1
    47    27    30    1
    48    27    26    1
    49    32    30    1
    50    81    79   ar
    51    21    26   am
    52    21    20    1
    53    30    31    1
    54     4     3    2
    55    12     9    1
    56    72    71    2
    57     9    10    1
    58     9     8    1
    59     6     5    1
    60    11    10    2
    61     5     2    1
    62     3     8   am
    63     3     2    1
    64    78    79    1
    65    78    77    1
    66    20    23    1
    67    20    19    1
    68    73    74    1
    69    79    80   ar
    70    23    24    1
    71     2     1    1
    72    74    77    1
    73    74    75    1
    74    19    25    1
    75    24    25    1
    76    75    76    2
