@<TRIPOS>MOLECULE
tmp/2f2uB00.pdb
 152 142 0 0 0
SMALL
GASTEIGER

@<TRIPOS>ATOM
      1  N         46.2670   95.1030  131.0990 N.3    72  ILE72      -0.1231
      2  CA        46.0050   96.0800  130.0580 C.3    72  ILE72       0.1692
      3  C         45.6060   95.3880  128.7390 C.2    72  ILE72       0.2592
      4  O         45.2520   96.0390  127.7670 O.2    72  ILE72      -0.2718
      5  CB        47.2320   96.9940  129.8310 C.3    72  ILE72       0.0266
      6  CG1       48.4670   96.1220  129.6120 C.3    72  ILE72       0.0019
      7  CG2       47.4200   97.9680  131.0360 C.3    72  ILE72       0.0020
      8  CD1       49.7040   96.9060  129.2280 C.3    72  ILE72       0.0001
      9  N         45.6460   94.0670  128.6960 N.am   73  GLY73      -0.1957
     10  CA        45.2520   93.4100  127.4740 C.3    73  GLY73       0.1869
     11  C         44.7970   92.0250  127.8140 C.2    73  GLY73       0.2309
     12  O         45.3180   91.4040  128.7240 O.2    73  GLY73      -0.2863
     13  N         45.1260   87.0780  121.7330 N.3    77  PHE77      -0.1241
     14  CA        46.5700   87.3080  121.7820 C.3    77  PHE77       0.1605
     15  C         47.2110   87.1180  123.1770 C.2    77  PHE77       0.2264
     16  O         48.3480   87.5410  123.3920 O.2    77  PHE77      -0.2867
     17  CB        46.8620   88.7260  121.2480 C.3    77  PHE77       0.0534
     18  CG        46.0790   89.8110  121.9450 C.ar   77  PHE77      -0.0203
     19  CD1       46.2970   90.0880  123.2980 C.ar   77  PHE77      -0.0042
     20  CD2       45.1300   90.5550  121.2490 C.ar   77  PHE77      -0.0042
     21  CE1       45.5800   91.0770  123.9460 C.ar   77  PHE77      -0.0003
     22  CE2       44.4060   91.5450  121.8870 C.ar   77  PHE77      -0.0003
     23  CZ        44.6350   91.8110  123.2400 C.ar   77  PHE77      -0.0000
     24  N         47.8170   90.2100  128.9060 N.3    80  VAL80      -0.1245
     25  CA        48.9420   91.1570  129.0340 C.3    80  VAL80       0.1561
     26  C         48.8070   92.0700  130.2840 C.2    80  VAL80       0.2260
     27  O         47.7770   92.6990  130.5220 O.2    80  VAL80      -0.2867
     28  CB        49.0630   92.0010  127.7090 C.3    80  VAL80       0.0252
     29  CG1       50.1980   92.9850  127.8080 C.3    80  VAL80       0.0019
     30  CG2       49.2820   91.0780  126.5190 C.3    80  VAL80       0.0019
     31  N         55.5760   95.5920  129.7540 N.3    93  ALA93      -0.1245
     32  CA        54.3090   94.9620  129.4200 C.3    93  ALA93       0.1562
     33  C         54.6530   93.4670  129.3590 C.2    93  ALA93       0.2260
     34  O         55.5530   93.0910  128.6190 O.2    93  ALA93      -0.2867
     35  CB        53.8050   95.4300  128.0630 C.3    93  ALA93       0.0290
     36  N         53.2590   89.4660  128.6620 N.3    95  LYS95      -0.1245
     37  CA        52.2100   88.6030  128.1200 C.3    95  LYS95       0.1561
     38  C         52.3330   87.2240  128.7610 C.2    95  LYS95       0.2260
     39  O         53.4500   86.7130  128.9050 O.2    95  LYS95      -0.2867
     40  CB        52.3560   88.4530  126.5920 C.3    95  LYS95       0.0271
     41  CG        51.2610   87.5770  126.0000 C.3    95  LYS95       0.0035
     42  CD        51.3370   87.4430  124.5110 C.3    95  LYS95       0.0206
     43  CE        51.1940   88.7920  123.8380 C.3    95  LYS95       0.1093
     44  NZ        51.2500   88.7020  122.3400 N.3    95  LYS95      -0.1314
     45  N         59.8090   89.3670  118.0410 N.3   118  MET118     -0.1245
     46  CA        60.0390   90.3740  119.0710 C.3   118  MET118      0.1570
     47  C         61.4360   90.3030  119.6410 C.2   118  MET118      0.2261
     48  O         61.9550   91.2650  120.1950 O.2   118  MET118     -0.2867
     49  CB        59.0080   90.2340  120.1910 C.3   118  MET118      0.0387
     50  CG        57.6060   90.5300  119.7320 C.3   118  MET118      0.0595
     51  SD        56.5270   90.9760  121.0980 S.3   118  MET118     -0.1393
     52  CE        56.3840   89.4230  121.8790 C.3   118  MET118      0.0692
     53  N         57.5440   95.8340  118.4130 N.3   127  VAL127     -0.1245
     54  CA        57.7010   95.8540  119.8730 C.3   127  VAL127      0.1561
     55  C         58.8440   94.9020  120.2010 C.2   127  VAL127      0.2260
     56  O         58.9080   93.7880  119.6720 O.2   127  VAL127     -0.2867
     57  CB        56.4260   95.3860  120.6170 C.3   127  VAL127      0.0252
     58  CG1       56.7450   95.0410  122.0670 C.3   127  VAL127      0.0019
     59  CG2       55.4330   96.4740  120.6090 C.3   127  VAL127      0.0019
     60  N         57.9030   92.5860  127.4070 N.3   143  MET143     -0.1230
     61  CA        58.0480   93.4820  126.2510 C.3   143  MET143      0.1702
     62  C         58.0910   94.9540  126.6140 C.2   143  MET143      0.2592
     63  O         57.6140   95.3260  127.6800 O.2   143  MET143     -0.2718
     64  CB        56.8500   93.2910  125.3280 C.3   143  MET143      0.0401
     65  CG        56.5480   91.8550  125.0210 C.3   143  MET143      0.0596
     66  SD        54.9360   91.6470  124.2470 S.3   143  MET143     -0.1393
     67  CE        53.8460   91.7040  125.6690 C.3   143  MET143      0.0692
     68  N         58.6220   95.8070  125.7380 N.am  144  GLU144     -0.1966
     69  CA        58.6290   97.2300  126.0900 C.3   144  GLU144      0.1733
     70  C         57.1940   97.7220  126.1120 C.2   144  GLU144      0.2616
     71  O         56.3740   97.3480  125.2830 O.2   144  GLU144     -0.2715
     72  CB        59.4640   98.0840  125.1290 C.3   144  GLU144      0.0429
     73  CG        58.9680   98.1020  123.7280 C.3   144  GLU144      0.1163
     74  CD        59.9150   98.8070  122.7640 C.2   144  GLU144      0.3649
     75  OE1       60.5920   99.7830  123.1860 O.co2 144  GLU144     -0.2457
     76  OE2       59.9550   98.3860  121.5780 O.co2 144  GLU144     -0.2457
     77  N         56.8960   98.5430  127.1000 N.am  145  TYR145     -0.1960
     78  CA        55.5660   99.0830  127.2870 C.3   145  TYR145      0.1771
     79  C         55.2710  100.2390  126.3200 C.2   145  TYR145      0.2619
     80  O         56.0580  101.1830  126.2110 O.2   145  TYR145     -0.2715
     81  CB        55.4630   99.5260  128.7410 C.3   145  TYR145      0.0574
     82  CG        54.2050  100.2500  129.0920 C.ar  145  TYR145     -0.0198
     83  CD1       52.9640   99.6900  128.8140 C.ar  145  TYR145     -0.0009
     84  CD2       54.2460  101.4900  129.7310 C.ar  145  TYR145     -0.0009
     85  CE1       51.7990  100.3280  129.1890 C.ar  145  TYR145      0.0417
     86  CE2       53.0880  102.1320  130.1070 C.ar  145  TYR145      0.0417
     87  CZ        51.8730  101.5530  129.8220 C.ar  145  TYR145      0.1957
     88  OH        50.7300  102.2080  130.1930 O.3   145  TYR145     -0.2866
     89  N         54.1310  100.1610  125.6250 N.am  146  MET146     -0.1977
     90  CA        53.6990  101.1740  124.6560 C.3   146  MET146      0.1605
     91  C         52.6230  102.0100  125.3480 C.2   146  MET146      0.2287
     92  O         51.4290  101.7310  125.2470 O.2   146  MET146     -0.2864
     93  CB        53.1470  100.4670  123.4150 C.3   146  MET146      0.0413
     94  CG        54.2010   99.6150  122.7640 C.3   146  MET146      0.0598
     95  SD        55.3170  100.5600  121.7220 S.3   146  MET146     -0.1393
     96  CE        56.8550  100.5110  122.6640 C.3   146  MET146      0.0692
     97  N         46.5830  101.6300  121.6930 N.3   150  ASP150     -0.1239
     98  CA        46.4290  101.1660  120.3170 C.3   150  ASP150      0.1674
     99  C         45.6140  102.1460  119.4870 C.2   150  ASP150      0.2266
    100  O         45.0940  103.1140  120.0270 O.2   150  ASP150     -0.2867
    101  CB        45.8170   99.7480  120.2810 C.3   150  ASP150      0.1410
    102  CG        44.4140   99.6900  120.8530 C.2   150  ASP150      0.3668
    103  OD1       43.6950  100.6940  120.7240 O.co2 150  ASP150     -0.2456
    104  OD2       44.0130   98.6430  121.4130 O.co2 150  ASP150     -0.2456
    105  N         43.6960   97.2670  116.4520 N.3   192  ASP192     -0.1225
    106  CA        43.9170   96.6370  117.7540 C.3   192  ASP192      0.1805
    107  C         45.3580   96.2150  117.9640 C.2   192  ASP192      0.2597
    108  O         45.8150   96.1760  119.0980 O.2   192  ASP192     -0.2718
    109  CB        43.0430   95.3990  117.8810 C.3   192  ASP192      0.1424
    110  CG        41.5920   95.6700  117.5040 C.2   192  ASP192      0.3668
    111  OD1       40.8060   95.8050  118.4710 O.co2 192  ASP192     -0.2456
    112  OD2       41.2450   95.7680  116.2830 O.co2 192  ASP192     -0.2456
    113  N         46.0630   95.8970  116.8790 N.am  193  ASN193     -0.1974
    114  CA        47.4520   95.4560  116.9560 C.3   193  ASN193      0.1688
    115  C         48.5100   96.5040  116.6410 C.2   193  ASN193      0.2292
    116  O         49.6830   96.1720  116.4570 O.2   193  ASN193     -0.2864
    117  CB        47.6450   94.2560  116.0350 C.3   193  ASN193      0.1181
    118  CG        46.8770   93.0390  116.5120 C.2   193  ASN193      0.2629
    119  OD1       46.6690   92.8600  117.7150 O.2   193  ASN193     -0.2716
    120  ND2       46.4660   92.1900  115.5810 N.am  193  ASN193     -0.0877
    121  N         50.2550   99.7830  118.0980 N.3   195  LEU195     -0.1245
    122  CA        50.4520  100.5000  119.3340 C.3   195  LEU195      0.1561
    123  C         51.3240  101.7170  119.1250 C.2   195  LEU195      0.2260
    124  O         52.1540  101.7510  118.2150 O.2   195  LEU195     -0.2867
    125  CB        51.0880   99.5420  120.3370 C.3   195  LEU195      0.0270
    126  CG        50.1750   98.4480  120.8900 C.3   195  LEU195      0.0019
    127  CD1       50.9920   97.4270  121.6340 C.3   195  LEU195      0.0001
    128  CD2       49.1790   99.0550  121.8450 C.3   195  LEU195      0.0001
    129  N         52.4090   94.8640  117.1940 N.3   205  ALA205     -0.1231
    130  CA        52.4640   93.8970  118.2740 C.3   205  ALA205      0.1694
    131  C         51.5610   92.7090  117.8610 C.2   205  ALA205      0.2592
    132  O         50.9060   92.7520  116.8210 O.2   205  ALA205     -0.2718
    133  CB        51.9860   94.5310  119.5770 C.3   205  ALA205      0.0304
    134  N         51.5500   91.6450  118.6550 N.am  206  ASP206     -0.1974
    135  CA        50.7490   90.4500  118.3800 C.3   206  ASP206      0.1709
    136  C         51.0230   89.8520  117.0320 C.2   206  ASP206      0.2293
    137  O         50.3720   90.1460  116.0410 O.2   206  ASP206     -0.2864
    138  CB        49.2400   90.7280  118.5920 C.3   206  ASP206      0.1436
    139  CG        48.9540   91.3480  119.9910 C.2   206  ASP206      0.3671
    140  OD1       49.5020   90.8110  120.9900 O.co2 206  ASP206     -0.2456
    141  OD2       48.2220   92.3670  120.1050 O.co2 206  ASP206     -0.2456
    142  N         44.5880  103.0850  127.8990 N.3   358  PHE358     -0.1241
    143  CA        44.1430  101.7090  127.7910 C.3   358  PHE358      0.1605
    144  C         42.8530  101.5400  128.5300 C.2   358  PHE358      0.2264
    145  O         42.7090  102.0410  129.6270 O.2   358  PHE358     -0.2867
    146  CB        45.1690  100.7850  128.4240 C.3   358  PHE358      0.0534
    147  CG        46.4420  100.6940  127.6630 C.ar  358  PHE358     -0.0203
    148  CD1       46.5740   99.7620  126.6430 C.ar  358  PHE358     -0.0042
    149  CD2       47.4880  101.5850  127.9190 C.ar  358  PHE358     -0.0042
    150  CE1       47.7520   99.6990  125.8840 C.ar  358  PHE358     -0.0003
    151  CE2       48.6690  101.5390  127.1770 C.ar  358  PHE358     -0.0003
    152  CZ        48.7990  100.5960  126.1440 C.ar  358  PHE358     -0.0000
@<TRIPOS>BOND
     1   120   118   am
     2   117   118    1
     3   117   114    1
     4   137   136    2
     5   112   110   ar
     6   105   106    1
     7   116   115    2
     8   118   119    2
     9   115   114    1
    10   132   131    2
    11   113   114    1
    12   113   107   am
    13   136   135    1
    14   129   130    1
    15   110   109    1
    16   110   111   ar
    17   106   109    1
    18   106   107    1
    19   131   130    1
    20   131   134   am
    21   107   108    2
    22    45    46    1
    23   121   122    1
    24   124   123    2
    25   130   133    1
    26   135   138    1
    27   135   134    1
    28    53    54    1
    29   138   139    1
    30    46    47    1
    31    46    49    1
    32   123   122    1
    33   122   125    1
    34    99   100    2
    35    99    98    1
    36    47    48    2
    37    56    55    2
    38    50    49    1
    39    50    51    1
    40    54    55    1
    41    54    57    1
    42   139   141   ar
    43   139   140   ar
    44   101    98    1
    45   101   102    1
    46    98    97    1
    47   125   126    1
    48    59    57    1
    49    57    58    1
    50   103   102   ar
    51   102   104   ar
    52   126   127    1
    53   126   128    1
    54    51    52    1
    55    17    14    1
    56    17    18    1
    57    20    22   ar
    58    20    18   ar
    59    76    74   ar
    60    95    96    1
    61    95    94    1
    62    13    14    1
    63    14    15    1
    64    22    23   ar
    65    18    19   ar
    66    44    43    1
    67    94    93    1
    68    74    75   ar
    69    74    73    1
    70    15    16    2
    71    23    21   ar
    72    19    21   ar
    73    93    90    1
    74    73    72    1
    75    43    42    1
    76    66    65    1
    77    66    67    1
    78    42    41    1
    79    90    91    1
    80    90    89    1
    81    65    64    1
    82    72    69    1
    83    92    91    2
    84    71    70    2
    85    64    61    1
    86    89    79   am
    87    68    69    1
    88    68    62   am
    89   150   152   ar
    90   150   148   ar
    91    41    40    1
    92    69    70    1
    93    70    77   am
    94   152   151   ar
    95    80    79    2
    96    61    62    1
    97    61    60    1
    98    79    78    1
    99    30    28    1
   100    40    37    1
   101    62    63    2
   102   148   147   ar
   103    77    78    1
   104   151   149   ar
   105    78    81    1
   106    10    11    1
   107    10     9    1
   108   147   149   ar
   109   147   146    1
   110    28    29    1
   111    28    25    1
   112     4     3    2
   113   143   142    1
   114   143   146    1
   115   143   144    1
   116    11    12    2
   117    35    32    1
   118    37    36    1
   119    37    38    1
   120   144   145    2
   121    34    33    2
   122     9     3   am
   123     3     2    1
   124    81    82    1
   125    38    39    2
   126    83    82   ar
   127    83    85   ar
   128    24    25    1
   129    25    26    1
   130    82    84   ar
   131    85    87   ar
   132     8     6    1
   133    33    32    1
   134    32    31    1
   135     6     5    1
   136    84    86   ar
   137    87    86   ar
   138    87    88    1
   139     5     2    1
   140     5     7    1
   141     2     1    1
   142    26    27    2
