@<TRIPOS>MOLECULE
tmp/2f34B00.pdb
 171 164 0 0 0
SMALL
GASTEIGER

@<TRIPOS>ATOM
      1  N        -44.4920   -6.9560   10.8860 N.3    10  GLU10      -0.1231
      2  CA       -45.1640   -5.8860   11.6390 C.3    10  GLU10       0.1699
      3  C        -44.0850   -5.0190   12.2670 C.2    10  GLU10       0.2592
      4  O        -43.3480   -5.4790   13.1320 O.2    10  GLU10      -0.2718
      5  CB       -46.0200   -6.5180   12.7560 C.3    10  GLU10       0.0402
      6  CG       -46.8930   -5.4940   13.4770 C.3    10  GLU10       0.1161
      7  CD       -48.0850   -5.0940   12.6320 C.2    10  GLU10       0.3649
      8  OE1      -48.0240   -4.0300   11.9770 O.co2  10  GLU10      -0.2457
      9  OE2      -49.0330   -5.9000   12.5190 O.co2  10  GLU10      -0.2457
     10  N        -43.9490   -3.7750   11.8210 N.am   11  GLU11      -0.1979
     11  CA       -42.9150   -2.9050   12.3900 C.3    11  GLU11       0.1602
     12  C        -43.2190   -2.4970   13.8340 C.2    11  GLU11       0.2287
     13  O        -44.3680   -2.1560   14.1500 O.2    11  GLU11      -0.2864
     14  CB       -42.8220   -1.6370   11.5220 C.3    11  GLU11       0.0415
     15  CG       -41.8110   -0.6340   11.9980 C.3    11  GLU11       0.1163
     16  CD       -41.7300    0.6130   11.0930 C.2    11  GLU11       0.3649
     17  OE1      -41.2110    1.6430   11.5810 O.co2  11  GLU11      -0.2457
     18  OE2      -42.1960    0.5680    9.9280 O.co2  11  GLU11      -0.2457
     19  N        -41.5770   -5.1070   15.1610 N.3    13  TYR13      -0.1241
     20  CA       -41.3670   -6.4490   15.6790 C.3    13  TYR13       0.1605
     21  C        -40.6600   -7.4140   14.7320 C.2    13  TYR13       0.2264
     22  O        -39.8080   -8.2170   15.1690 O.2    13  TYR13      -0.2867
     23  CB       -42.7480   -7.0840   16.0490 C.3    13  TYR13       0.0534
     24  CG       -43.5380   -6.2440   17.0410 C.ar   13  TYR13      -0.0201
     25  CD1      -44.4370   -5.2660   16.6040 C.ar   13  TYR13      -0.0009
     26  CD2      -43.3630   -6.4110   18.3960 C.ar   13  TYR13      -0.0009
     27  CE1      -45.1420   -4.4940   17.5200 C.ar   13  TYR13       0.0417
     28  CE2      -44.0730   -5.6380   19.3200 C.ar   13  TYR13       0.0417
     29  CZ       -44.9340   -4.6800   18.8540 C.ar   13  TYR13       0.1957
     30  OH       -45.6140   -3.9200   19.7720 O.3    13  TYR13      -0.2866
     31  N        -53.1520  -12.7610   12.1140 N.3    58  TYR58      -0.1241
     32  CA       -52.7970  -13.0780   13.5040 C.3    58  TYR58       0.1605
     33  C        -53.4660  -14.3530   13.9440 C.2    58  TYR58       0.2264
     34  O        -52.8170  -15.2830   14.4580 O.2    58  TYR58      -0.2867
     35  CB       -53.1430  -11.9210   14.4540 C.3    58  TYR58       0.0534
     36  CG       -52.0780  -10.8380   14.3830 C.ar   58  TYR58      -0.0201
     37  CD1      -52.1440   -9.8160   13.4440 C.ar   58  TYR58      -0.0009
     38  CD2      -50.9880  -10.8590   15.2420 C.ar   58  TYR58      -0.0009
     39  CE1      -51.1420   -8.8350   13.3650 C.ar   58  TYR58       0.0417
     40  CE2      -49.9640   -9.8810   15.1550 C.ar   58  TYR58       0.0417
     41  CZ       -50.0540   -8.8840   14.2300 C.ar   58  TYR58       0.1957
     42  OH       -49.0570   -7.9340   14.1440 O.3    58  TYR58      -0.2866
     43  N        -46.3770   -9.9400   18.0180 N.3    85  PRO85      -0.2102
     44  CA       -47.2280   -9.1190   18.9120 C.3    85  PRO85       0.1504
     45  C        -48.6300   -9.7360   18.8980 C.2    85  PRO85       0.2576
     46  O        -49.5630   -9.1540   18.3460 O.2    85  PRO85      -0.2718
     47  CB       -47.2120   -7.7580   18.2310 C.3    85  PRO85       0.0282
     48  CG       -46.9290   -8.0490   16.7600 C.3    85  PRO85       0.0208
     49  CD       -45.9650   -9.2230   16.7900 C.3    85  PRO85       0.0893
     50  N        -48.7190  -10.9020   19.5340 N.am   86  LEU86      -0.1966
     51  CA       -49.9140  -11.7520   19.5550 C.3    86  LEU86       0.1728
     52  C        -50.5450  -11.6930   20.9470 C.2    86  LEU86       0.2616
     53  O        -49.9770  -12.1380   21.9220 O.2    86  LEU86      -0.2715
     54  CB       -49.5020  -13.1950   19.2010 C.3    86  LEU86       0.0311
     55  CG       -50.6600  -14.2050   19.1150 C.3    86  LEU86       0.0022
     56  CD1      -51.5730  -13.8670   17.9460 C.3    86  LEU86       0.0001
     57  CD2      -50.0420  -15.6240   18.9470 C.3    86  LEU86       0.0001
     58  N        -51.7460  -11.1310   21.0260 N.am   87  THR87      -0.1951
     59  CA       -52.3820  -10.9450   22.3170 C.3    87  THR87       0.1897
     60  C        -52.8940  -12.2230   22.9480 C.2    87  THR87       0.2313
     61  O        -53.5040  -13.0570   22.2840 O.2    87  THR87      -0.2863
     62  CB       -53.5870   -9.9830   22.1800 C.3    87  THR87       0.1794
     63  OG1      -53.1060   -8.7620   21.6240 O.3    87  THR87      -0.2208
     64  CG2      -54.1760   -9.6810   23.5480 C.3    87  THR87       0.0378
     65  N        -58.3970  -17.5340   22.4040 N.3    92  ARG92      -0.1245
     66  CA       -57.2150  -18.1940   21.9040 C.3    92  ARG92       0.1563
     67  C        -56.6780  -19.2590   22.8640 C.2    92  ARG92       0.2260
     68  O        -56.2010  -20.3190   22.4280 O.2    92  ARG92      -0.2867
     69  CB       -56.1360  -17.1540   21.5580 C.3    92  ARG92       0.0307
     70  CG       -56.4930  -16.3800   20.2940 C.3    92  ARG92       0.0489
     71  CD       -55.4440  -15.2610   20.1360 C.3    92  ARG92       0.2205
     72  NE       -55.7030  -14.5480   18.8550 N.pl3  92  ARG92      -0.0865
     73  CZ       -55.1600  -13.3590   18.5530 C.cat  92  ARG92       0.5346
     74  NH1      -54.4260  -12.7320   19.4580 N.pl3  92  ARG92       0.1354
     75  NH2      -55.4010  -12.7690   17.3640 N.pl3  92  ARG92       0.1354
     76  N        -59.5410    2.8240   14.5460 N.3   134  VAL134     -0.1245
     77  CA       -59.4660    2.1410   13.2610 C.3   134  VAL134      0.1561
     78  C        -60.6850    1.2270   13.1640 C.2   134  VAL134      0.2260
     79  O        -60.9600    0.4390   14.0710 O.2   134  VAL134     -0.2867
     80  CB       -58.1830    1.2920   13.1360 C.3   134  VAL134      0.0252
     81  CG1      -58.1790    0.5250   11.8290 C.3   134  VAL134      0.0019
     82  CG2      -56.9350    2.1710   13.2480 C.3   134  VAL134      0.0019
     83  N        -61.0440   -2.8040   14.2970 N.3   137  GLY137     -0.1210
     84  CA       -59.8090   -3.2350   14.9170 C.3   137  GLY137      0.1956
     85  C        -60.1060   -3.7140   16.3210 C.2   137  GLY137      0.2613
     86  O        -61.2610   -3.7430   16.7480 O.2   137  GLY137     -0.2717
     87  N        -59.0670   -4.0640   17.0510 N.am  138  SER138     -0.1938
     88  CA       -59.2540   -4.5410   18.4090 C.3   138  SER138      0.2055
     89  C        -59.7730   -3.4040   19.2820 C.2   138  SER138      0.2644
     90  O        -60.6220   -3.6130   20.1520 O.2   138  SER138     -0.2714
     91  CB       -57.9560   -5.1050   18.9530 C.3   138  SER138      0.2130
     92  OG       -56.9430   -4.1230   18.9440 O.3   138  SER138     -0.2179
     93  N        -59.2940   -2.1910   19.0230 N.am  139  THR139     -0.1936
     94  CA       -59.7060   -1.0230   19.8080 C.3   139  THR139      0.2028
     95  C        -61.1730   -0.6340   19.6040 C.2   139  THR139      0.2642
     96  O        -61.8910   -0.3610   20.5710 O.2   139  THR139     -0.2714
     97  CB       -58.7340    0.1670   19.6170 C.3   139  THR139      0.1808
     98  OG1      -57.4200   -0.2190   20.0390 O.3   139  THR139     -0.2208
     99  CG2      -59.1700    1.3640   20.4340 C.3   139  THR139      0.0379
    100  N        -61.6390   -0.6330   18.3600 N.am  140  MET140     -0.1976
    101  CA       -63.0310   -0.2900   18.1040 C.3   140  MET140      0.1605
    102  C        -63.9000   -1.2750   18.8630 C.2   140  MET140      0.2287
    103  O        -64.8480   -0.8960   19.5510 O.2   140  MET140     -0.2864
    104  CB       -63.3740   -0.4200   16.6250 C.3   140  MET140      0.0413
    105  CG       -64.7820    0.0630   16.3270 C.3   140  MET140      0.0598
    106  SD       -65.5100   -0.5550   14.8100 S.3   140  MET140     -0.1393
    107  CE       -65.7070   -2.2850   15.2310 C.3   140  MET140      0.0692
    108  N        -57.1280    2.7530    8.7310 N.3   169  ASN169     -0.1225
    109  CA       -55.9630    2.1260    9.3550 C.3   169  ASN169      0.1785
    110  C        -55.1550    3.0860   10.2210 C.2   169  ASN169      0.2597
    111  O        -55.4410    4.2880   10.2590 O.2   169  ASN169     -0.2718
    112  CB       -55.0770    1.4560    8.2940 C.3   169  ASN169      0.1169
    113  CG       -54.6210    2.4160    7.2120 C.2   169  ASN169      0.2627
    114  OD1      -54.4740    3.6180    7.4350 O.2   169  ASN169     -0.2716
    115  ND2      -54.3920    1.8810    6.0210 N.am  169  ASN169     -0.0877
    116  N        -54.1540    2.5480   10.9150 N.am  170  SER170     -0.1952
    117  CA       -53.2950    3.3390   11.7940 C.3   170  SER170      0.1924
    118  C        -52.6400    4.4830   11.0630 C.2   170  SER170      0.2314
    119  O        -52.5670    5.5940   11.5870 O.2   170  SER170     -0.2863
    120  CB       -52.2070    2.4700   12.4140 C.3   170  SER170      0.2116
    121  OG       -52.7780    1.4700   13.2260 O.3   170  SER170     -0.2180
    122  N        -57.6200    6.6180   19.1770 N.3   185  LEU185     -0.1231
    123  CA       -57.5040    5.5990   20.2190 C.3   185  LEU185      0.1693
    124  C        -56.7860    4.3990   19.6350 C.2   185  LEU185      0.2595
    125  O        -57.2240    3.8310   18.6260 O.2   185  LEU185     -0.2718
    126  CB       -58.8780    5.1910   20.7570 C.3   185  LEU185      0.0284
    127  CG       -59.6390    6.1590   21.6720 C.3   185  LEU185      0.0019
    128  CD1      -58.9450    6.2770   23.0300 C.3   185  LEU185      0.0001
    129  CD2      -59.8650    7.5220   21.0500 C.3   185  LEU185      0.0001
    130  N        -55.6240    4.1020   20.2080 N.am  186  MET186     -0.1920
    131  CA       -54.7950    3.0030   19.7560 C.3   186  MET186      0.1952
    132  C        -54.0110    2.3900   20.9100 C.2   186  MET186      0.2658
    133  O        -53.9060    2.9610   21.9970 O.2   186  MET186     -0.2711
    134  CB       -53.8270    3.3990   18.6000 C.2   186  MET186      0.0110
    135  CG       -52.8840    4.6140   18.8190 C.2   186  MET186      0.0285
    136  SD       -51.4390    4.8430   17.6680 S.3   186  MET186     -0.1125
    137  CE       -52.1350    4.4220   16.0760 C.3   186  MET186      0.0742
    138  N        -53.4680    1.2170   20.6570 N.am  187  GLU187     -0.1974
    139  CA       -52.6610    0.5290   21.6550 C.3   187  GLU187      0.1602
    140  C        -51.4880    1.3830   22.0930 C.2   187  GLU187      0.2287
    141  O        -50.8780    2.1130   21.2890 O.2   187  GLU187     -0.2864
    142  CB       -52.1590   -0.7840   21.1050 C.3   187  GLU187      0.0415
    143  CG       -53.2440   -1.8100   20.9680 C.3   187  GLU187      0.1163
    144  CD       -53.8180   -2.2240   22.3180 C.2   187  GLU187      0.3649
    145  OE1      -53.4380   -1.6320   23.3580 O.co2 187  GLU187     -0.2457
    146  OE2      -54.6640   -3.1380   22.3250 O.co2 187  GLU187     -0.2457
    147  N        -48.4710    0.5290   22.8580 N.3   189  THR189     -0.1203
    148  CA       -47.2120    0.2090   22.1760 C.3   189  THR189      0.1994
    149  C        -47.0530    0.9950   20.8690 C.2   189  THR189      0.2618
    150  O        -46.0020    1.5970   20.6210 O.2   189  THR189     -0.2717
    151  CB       -47.1040   -1.2780   21.8680 C.3   189  THR189      0.1784
    152  OG1      -48.3360   -1.7110   21.2780 O.3   189  THR189     -0.2211
    153  CG2      -46.8460   -2.0950   23.1430 C.3   189  THR189      0.0376
    154  N        -48.0960    1.0050   20.0460 N.am  190  SER190     -0.1951
    155  CA       -48.0410    1.7440   18.7880 C.3   190  SER190      0.1924
    156  C        -47.9060    3.2380   19.0240 C.2   190  SER190      0.2314
    157  O        -47.1930    3.9190   18.2760 O.2   190  SER190     -0.2863
    158  CB       -49.2770    1.4870   17.9410 C.3   190  SER190      0.2116
    159  OG       -49.3460    0.1310   17.5890 O.3   190  SER190     -0.2180
    160  N        -48.8550   -9.4850   25.2420 N.3   213  TYR213     -0.1241
    161  CA       -48.3710  -10.2810   24.1060 C.3   213  TYR213      0.1605
    162  C        -47.6240  -11.4630   24.7150 C.2   213  TYR213      0.2264
    163  O        -46.7930  -11.2610   25.6140 O.2   213  TYR213     -0.2867
    164  CB       -47.3580   -9.5080   23.2420 C.3   213  TYR213      0.0534
    165  CG       -47.9100   -8.3520   22.4690 C.ar  213  TYR213     -0.0201
    166  CD1      -47.1030   -7.2890   22.1480 C.ar  213  TYR213     -0.0009
    167  CD2      -49.2850   -8.2860   22.1120 C.ar  213  TYR213     -0.0009
    168  CE1      -47.5870   -6.1970   21.4390 C.ar  213  TYR213      0.0417
    169  CE2      -49.7780   -7.1910   21.3730 C.ar  213  TYR213      0.0417
    170  CZ       -48.8960   -6.1510   21.0410 C.ar  213  TYR213      0.1957
    171  OH       -49.3140   -5.0480   20.3170 O.3   213  TYR213     -0.2866
@<TRIPOS>BOND
     1   115   113   am
     2   113   114    2
     3   113   112    1
     4   112   109    1
     5   108   109    1
     6   109   110    1
     7    18    16   ar
     8   110   111    2
     9   110   116   am
    10     1     2    1
    11   116   117    1
    12   118   119    2
    13   118   117    1
    14    16    17   ar
    15    16    15    1
    16    14    15    1
    17    14    11    1
    18     2     3    1
    19     2     5    1
    20   117   120    1
    21    10     3   am
    22    10    11    1
    23    81    80    1
    24     8     7   ar
    25    31    32    1
    26     3     4    2
    27    11    12    1
    28   120   121    1
    29     9     7   ar
    30     7     6    1
    31     5     6    1
    32    80    82    1
    33    80    77    1
    34    78    77    1
    35    78    79    2
    36    77    76    1
    37    39    37   ar
    38    39    41   ar
    39    37    36   ar
    40    32    33    1
    41    32    35    1
    42    12    13    2
    43    33    34    2
    44    42    41    1
    45    41    40   ar
    46    83    84    1
    47    36    35    1
    48    36    38   ar
    49    21    22    2
    50    21    20    1
    51   106   107    1
    52   106   105    1
    53    84    85    1
    54    40    38   ar
    55    19    20    1
    56    20    23    1
    57    23    24    1
    58   137   136    1
    59    85    86    2
    60    85    87   am
    61   105   104    1
    62    25    24   ar
    63    25    27   ar
    64   104   101    1
    65    48    49    1
    66    48    47    1
    67    49    43    1
    68    24    26   ar
    69    87    88    1
    70    75    73    1
    71    27    29   ar
    72   159   158    1
    73   136   135    1
    74   158   155    1
    75    56    55    1
    76    43    44    1
    77   101   100    1
    78   101   102    1
    79    47    44    1
    80   157   156    2
    81    46    45    2
    82   100    95   am
    83    26    28   ar
    84    88    91    1
    85    88    89    1
    86    73    72    2
    87    73    74    1
    88   134   135    2
    89   134   131    1
    90   125   124    2
    91   155   156    1
    92   155   154    1
    93    29    28   ar
    94    29    30    1
    95    72    71    1
    96   102   103    2
    97    45    44    1
    98    45    50   am
    99    92    91    1
   100    57    55    1
   101    93    89   am
   102    93    94    1
   103    55    54    1
   104   122   123    1
   105    54    51    1
   106    89    90    2
   107    50    51    1
   108    51    52    1
   109    95    94    1
   110    95    96    2
   111    97    94    1
   112    97    98    1
   113    97    99    1
   114   124   130   am
   115   124   123    1
   116   131   130    1
   117   131   132    1
   118   154   149   am
   119    71    70    1
   120   123   126    1
   121    70    69    1
   122   171   170    1
   123   150   149    2
   124   138   132   am
   125   138   139    1
   126   126   127    1
   127   149   148    1
   128   132   133    2
   129    52    58   am
   130    52    53    2
   131   143   142    1
   132   143   144    1
   133    58    59    1
   134   170   169   ar
   135   170   168   ar
   136   129   127    1
   137   142   139    1
   138   152   151    1
   139   141   140    2
   140   169   167   ar
   141   168   166   ar
   142    69    66    1
   143    63    62    1
   144   139   140    1
   145   127   128    1
   146   151   148    1
   147   151   153    1
   148    66    65    1
   149    66    67    1
   150   167   165   ar
   151   166   165   ar
   152   148   147    1
   153    62    59    1
   154    62    64    1
   155    61    60    2
   156    59    60    1
   157   144   146   ar
   158   144   145   ar
   159    68    67    2
   160   165   164    1
   161   164   161    1
   162   161   162    1
   163   161   160    1
   164   162   163    2
