@<TRIPOS>MOLECULE
tmp/2f35A01.pdb
 154 147 0 0 0
SMALL
GASTEIGER

@<TRIPOS>ATOM
      1  N         -7.0950    4.1830   21.1470 N.3    10  GLU10      -0.1245
      2  CA        -6.0430    3.5000   20.3970 C.3    10  GLU10       0.1567
      3  C         -5.1680    4.5820   19.7870 C.2    10  GLU10       0.2260
      4  O         -5.6280    5.3320   18.9520 O.2    10  GLU10      -0.2867
      5  CB        -6.6680    2.6230   19.2850 C.3    10  GLU10       0.0388
      6  CG        -5.6560    1.7690   18.5210 C.3    10  GLU10       0.1160
      7  CD        -5.2190    0.5280   19.2850 C.2    10  GLU10       0.3649
      8  OE1       -4.0290    0.4650   19.6740 O.co2  10  GLU10      -0.2457
      9  OE2       -6.0660   -0.3700   19.5390 O.co2  10  GLU10      -0.2457
     10  N         -5.1980    7.1540   16.9480 N.3    13  TYR13      -0.1241
     11  CA        -6.5630    7.3690   16.4300 C.3    13  TYR13       0.1605
     12  C         -7.5090    8.0580   17.3970 C.2    13  TYR13       0.2264
     13  O         -8.3030    8.9020   17.0110 O.2    13  TYR13      -0.2867
     14  CB        -7.2150    6.0110   16.0910 C.3    13  TYR13       0.0534
     15  CG        -6.4050    5.2330   15.1040 C.ar   13  TYR13      -0.0201
     16  CD1       -5.4500    4.3000   15.5290 C.ar   13  TYR13      -0.0009
     17  CD2       -6.5560    5.4490   13.7520 C.ar   13  TYR13      -0.0009
     18  CE1       -4.6800    3.5810   14.6090 C.ar   13  TYR13       0.0417
     19  CE2       -5.7900    4.7290   12.8280 C.ar   13  TYR13       0.0417
     20  CZ        -4.8640    3.8130   13.2680 C.ar   13  TYR13       0.1957
     21  OH        -4.1150    3.1320   12.3370 O.3    13  TYR13      -0.2866
     22  N        -12.9100   -4.3350   20.1030 N.3    58  TYR58      -0.1241
     23  CA       -13.2550   -4.0090   18.7070 C.3    58  TYR58       0.1605
     24  C        -14.5340   -4.7160   18.3020 C.2    58  TYR58       0.2264
     25  O        -15.5010   -4.0920   17.8500 O.2    58  TYR58      -0.2867
     26  CB       -12.0970   -4.3280   17.7530 C.3    58  TYR58       0.0534
     27  CG       -11.0160   -3.2620   17.8390 C.ar   58  TYR58      -0.0201
     28  CD1       -9.9930   -3.3470   18.7780 C.ar   58  TYR58      -0.0009
     29  CD2      -11.0650   -2.1400   17.0190 C.ar   58  TYR58      -0.0009
     30  CE1       -9.0190   -2.3420   18.8690 C.ar   58  TYR58       0.0417
     31  CE2      -10.1040   -1.1320   17.0960 C.ar   58  TYR58       0.0417
     32  CZ        -9.0840   -1.2370   18.0220 C.ar   58  TYR58       0.1957
     33  OH        -8.1400   -0.2350   18.1100 O.3    58  TYR58      -0.2866
     34  N        -10.0840    2.5120   14.2110 N.3    85  PRO85      -0.2102
     35  CA        -9.3110    1.6600   13.3120 C.3    85  PRO85       0.1504
     36  C         -9.9660    0.2590   13.3350 C.2    85  PRO85       0.2576
     37  O         -9.3960   -0.6920   13.9130 O.2    85  PRO85      -0.2718
     38  CB        -7.9280    1.6280   13.9580 C.3    85  PRO85       0.0282
     39  CG        -8.1470    1.9370   15.4190 C.3    85  PRO85       0.0208
     40  CD        -9.3230    2.8860   15.4220 C.3    85  PRO85       0.0893
     41  N        -11.1550    0.1770   12.7270 N.am   86  LEU86      -0.1966
     42  CA       -11.9980   -1.0420   12.6840 C.3    86  LEU86       0.1728
     43  C        -11.9110   -1.7070   11.3080 C.2    86  LEU86       0.2616
     44  O        -12.3400   -1.1420   10.3180 O.2    86  LEU86      -0.2715
     45  CB       -13.4510   -0.6650   12.9730 C.3    86  LEU86       0.0311
     46  CG       -14.4810   -1.8060   13.0960 C.3    86  LEU86       0.0022
     47  CD1      -14.2000   -2.6800   14.3140 C.3    86  LEU86       0.0001
     48  CD2      -15.8470   -1.1980   13.2240 C.3    86  LEU86       0.0001
     49  N        -11.3640   -2.9160   11.2640 N.am   87  THR87      -0.1951
     50  CA       -11.1660   -3.6010    9.9820 C.3    87  THR87       0.1897
     51  C        -12.4380   -4.0860    9.3420 C.2    87  THR87       0.2313
     52  O        -13.2900   -4.6820   10.0150 O.2    87  THR87      -0.2863
     53  CB       -10.2210   -4.7970   10.0920 C.3    87  THR87       0.1794
     54  OG1       -8.9860   -4.3390   10.6600 O.3    87  THR87      -0.2208
     55  CG2       -9.9560   -5.3430    8.6760 C.3    87  THR87       0.0378
     56  N        -17.7830   -9.6060    9.8370 N.3    92  ARG92      -0.1245
     57  CA       -18.4530   -8.3990   10.3370 C.3    92  ARG92       0.1563
     58  C        -19.5210   -7.8800    9.3790 C.2    92  ARG92       0.2260
     59  O        -20.5760   -7.3750    9.8340 O.2    92  ARG92      -0.2867
     60  CB       -17.4270   -7.3020   10.7220 C.3    92  ARG92       0.0307
     61  CG       -16.6470   -7.6230   12.0080 C.3    92  ARG92       0.0489
     62  CD       -15.5360   -6.6080   12.2110 C.3    92  ARG92       0.2205
     63  NE       -14.8180   -6.8650   13.4810 N.pl3  92  ARG92      -0.0865
     64  CZ       -13.6220   -6.3380   13.7600 C.cat  92  ARG92       0.5346
     65  NH1      -13.0070   -5.5990   12.8500 N.pl3  92  ARG92       0.1354
     66  NH2      -13.0240   -6.5840   14.9300 N.pl3  92  ARG92       0.1354
     67  N          3.0530  -10.5990   17.6880 N.3   134  VAL134     -0.1245
     68  CA         2.3340  -10.5110   18.9460 C.3   134  VAL134      0.1561
     69  C          1.4240  -11.7260   19.0270 C.2   134  VAL134      0.2260
     70  O          0.5700  -11.9340   18.1680 O.2   134  VAL134     -0.2867
     71  CB         1.4920   -9.2180   19.0360 C.3   134  VAL134      0.0252
     72  CG1        0.6160   -9.2330   20.2670 C.3   134  VAL134      0.0019
     73  CG2        2.3940   -7.9850   19.0260 C.3   134  VAL134      0.0019
     74  N         -2.7510  -12.2160   18.0800 N.3   137  GLY137     -0.1210
     75  CA        -3.2730  -11.0200   17.4160 C.3   137  GLY137      0.1956
     76  C         -3.5990  -11.3070   15.9580 C.2   137  GLY137      0.2613
     77  O         -3.2480  -12.3680   15.4370 O.2   137  GLY137     -0.2717
     78  N         -4.2590  -10.3680   15.2910 N.am  138  SER138     -0.1938
     79  CA        -4.6030  -10.5580   13.8890 C.3   138  SER138      0.2055
     80  C         -3.3800  -11.0560   13.1150 C.2   138  SER138      0.2644
     81  O         -3.4310  -12.1060   12.4700 O.2   138  SER138     -0.2714
     82  CB        -5.2120   -9.2940   13.2900 C.3   138  SER138      0.2130
     83  OG        -4.3650   -8.1730   13.4230 O.3   138  SER138     -0.2179
     84  N         -2.2600  -10.3570   13.2600 N.am  139  THR139     -0.1936
     85  CA        -1.0240  -10.7160   12.5540 C.3   139  THR139      0.2028
     86  C         -0.5420  -12.1750   12.7140 C.2   139  THR139      0.2642
     87  O         -0.0810  -12.7830   11.7420 O.2   139  THR139     -0.2714
     88  CB         0.0990   -9.7020   12.8480 C.3   139  THR139      0.1808
     89  OG1       -0.3370   -8.3960   12.4530 O.3   139  THR139     -0.2208
     90  CG2        1.3710  -10.0480   12.0850 C.3   139  THR139      0.0379
     91  N         -0.6300  -12.7340   13.9220 N.am  140  MET140     -0.1976
     92  CA        -0.2110  -14.1220   14.1400 C.3   140  MET140      0.1605
     93  C         -1.1900  -15.0570   13.4420 C.2   140  MET140      0.2287
     94  O         -0.7980  -16.0560   12.8230 O.2   140  MET140     -0.2864
     95  CB        -0.1990  -14.4890   15.6220 C.3   140  MET140      0.0413
     96  CG         0.2620  -15.9290   15.8340 C.3   140  MET140      0.0598
     97  SD        -0.1910  -16.6710   17.4010 S.3   140  MET140     -0.1393
     98  CE        -1.9800  -16.5260   17.2920 C.3   140  MET140      0.0692
     99  N          3.1440   -8.3240   23.5870 N.3   169  ASN169     -0.1225
    100  CA         2.5010   -7.1420   23.0110 C.3   169  ASN169      0.1785
    101  C          3.4490   -6.3370   22.1300 C.2   169  ASN169      0.2597
    102  O          4.6510   -6.6130   22.0800 O.2   169  ASN169     -0.2718
    103  CB         1.8860   -6.2490   24.1000 C.3   169  ASN169      0.1169
    104  CG         2.9210   -5.7240   25.0990 C.2   169  ASN169      0.2627
    105  OD1        4.1260   -5.9100   24.9360 O.2   169  ASN169     -0.2716
    106  ND2        2.4390   -5.0550   26.1370 N.am  169  ASN169     -0.0877
    107  N          2.8990   -5.3410   21.4400 N.am  170  SER170     -0.1952
    108  CA         3.6770   -4.4900   20.5460 C.3   170  SER170      0.1924
    109  C          4.8750   -3.8690   21.2520 C.2   170  SER170      0.2314
    110  O          5.9980   -3.9360   20.7550 O.2   170  SER170     -0.2863
    111  CB         2.7910   -3.3970   19.9570 C.3   170  SER170      0.2116
    112  OG         1.7070   -3.9710   19.2530 O.3   170  SER170     -0.2180
    113  N          4.1370   -6.8410   11.9830 N.3   186  MET186     -0.1182
    114  CA         3.0690   -6.0520   12.5620 C.3   186  MET186      0.1917
    115  C          2.4410   -5.2240   11.4520 C.2   186  MET186      0.2634
    116  O          3.0340   -5.0570   10.3820 O.2   186  MET186     -0.2714
    117  CB         3.5990   -5.1310   13.6940 C.2   186  MET186      0.0083
    118  CG         4.0300   -3.6890   13.3100 C.2   186  MET186      0.0282
    119  SD         4.9660   -2.7280   14.5820 S.3   186  MET186     -0.1125
    120  CE         4.0310   -3.0700   16.0680 C.3   186  MET186      0.0742
    121  N          1.2440   -4.7170   11.7030 N.am  187  GLU187     -0.1977
    122  CA         0.5460   -3.8930   10.7170 C.3   187  GLU187      0.1602
    123  C          1.4090   -2.7280   10.2440 C.2   187  GLU187      0.2287
    124  O          2.2090   -2.1600   11.0090 O.2   187  GLU187     -0.2864
    125  CB        -0.7750   -3.3900   11.2750 C.3   187  GLU187      0.0415
    126  CG        -1.8210   -4.4790   11.4380 C.3   187  GLU187      0.1163
    127  CD        -2.3080   -5.0430   10.1000 C.2   187  GLU187      0.3649
    128  OE1       -3.2030   -5.9110   10.1250 O.co2 187  GLU187     -0.2457
    129  OE2       -1.8000   -4.6230    9.0370 O.co2 187  GLU187     -0.2457
    130  N          0.5140    0.3120    9.4570 N.3   189  THR189     -0.1203
    131  CA         0.2030    1.5680   10.1510 C.3   189  THR189      0.1994
    132  C          1.0820    1.7470   11.4070 C.2   189  THR189      0.2618
    133  O          1.6740    2.8130   11.6190 O.2   189  THR189     -0.2717
    134  CB        -1.2650    1.6350   10.5350 C.3   189  THR189      0.1784
    135  OG1       -1.6610    0.3600   11.0660 O.3   189  THR189     -0.2211
    136  CG2       -2.1330    1.9370    9.3010 C.3   189  THR189      0.0376
    137  N          1.2020    0.6910   12.2080 N.am  190  SER190     -0.1951
    138  CA         2.0140    0.7250   13.4330 C.3   190  SER190      0.1924
    139  C          3.4980    0.8430   13.1410 C.2   190  SER190      0.2314
    140  O          4.2290    1.5530   13.8400 O.2   190  SER190     -0.2863
    141  CB         1.7570   -0.5230   14.2700 C.3   190  SER190      0.2116
    142  OG         0.4060   -0.5830   14.6680 O.3   190  SER190     -0.2180
    143  N         -9.6990   -0.0490    6.9530 N.3   213  TYR213     -0.1241
    144  CA       -10.4900    0.4190    8.0760 C.3   213  TYR213      0.1605
    145  C        -11.6700    1.1870    7.4830 C.2   213  TYR213      0.2264
    146  O        -11.4730    2.0400    6.6340 O.2   213  TYR213     -0.2867
    147  CB        -9.7200    1.4080    8.9670 C.3   213  TYR213      0.0534
    148  CG        -8.5460    0.8560    9.7630 C.ar  213  TYR213     -0.0201
    149  CD1       -7.4700    1.6800   10.0810 C.ar  213  TYR213     -0.0009
    150  CD2       -8.4890   -0.4910   10.1620 C.ar  213  TYR213     -0.0009
    151  CE1       -6.3920    1.2140   10.8320 C.ar  213  TYR213      0.0417
    152  CE2       -7.3920   -0.9730   10.9260 C.ar  213  TYR213      0.0417
    153  CZ        -6.3550   -0.1090   11.2390 C.ar  213  TYR213      0.1957
    154  OH        -5.2870   -0.5530   11.9840 O.3   213  TYR213     -0.2866
@<TRIPOS>BOND
     1   146   145    2
     2   143   144    1
     3   145   144    1
     4   144   147    1
     5    55    53    1
     6   147   148    1
     7   129   127   ar
     8   136   134    1
     9    51    50    1
    10    51    52    2
    11    58    59    2
    12    58    57    1
    13   130   131    1
    14   148   149   ar
    15   148   150   ar
    16    56    57    1
    17    50    53    1
    18    50    49    1
    19   149   151   ar
    20    53    54    1
    21   127   128   ar
    22   127   126    1
    23   131   134    1
    24   131   132    1
    25   150   152   ar
    26   123   122    1
    27   123   124    2
    28    44    43    2
    29    57    60    1
    30   116   115    2
    31   134   135    1
    32   122   125    1
    33   122   121    1
    34    60    61    1
    35   151   153   ar
    36   152   153   ar
    37   153   154    1
    38    49    43   am
    39   125   126    1
    40    43    42    1
    41   132   133    2
    42   132   137   am
    43   115   121   am
    44   115   114    1
    45    87    86    2
    46   113   114    1
    47    61    62    1
    48    90    88    1
    49   137   138    1
    50    62    63    1
    51    21    20    1
    52    89    88    1
    53    81    80    2
    54    85    86    1
    55    85    88    1
    56    85    84    1
    57   114   117    1
    58    42    41    1
    59    42    45    1
    60    86    91   am
    61    41    36   am
    62    94    93    2
    63    19    20   ar
    64    19    17   ar
    65    65    64    1
    66    45    46    1
    67    46    48    1
    68    46    47    1
    69    80    84   am
    70    80    79    1
    71   139   138    1
    72   139   140    2
    73    20    18   ar
    74    82    83    1
    75    82    79    1
    76   118   117    2
    77   118   119    1
    78    35    36    1
    79    35    38    1
    80    35    34    1
    81    36    37    2
    82   138   141    1
    83    93    92    1
    84    63    64    2
    85    17    15   ar
    86    64    66    1
    87    79    78    1
    88    91    92    1
    89    38    39    1
    90    92    95    1
    91    34    40    1
    92   141   142    1
    93   119   120    1
    94    18    16   ar
    95    15    16   ar
    96    15    14    1
    97    78    76   am
    98    39    40    1
    99    77    76    2
   100    95    96    1
   101    96    97    1
   102    76    75    1
   103    14    11    1
   104    11    10    1
   105    11    12    1
   106    13    12    2
   107    29    31   ar
   108    29    27   ar
   109    31    32   ar
   110    98    97    1
   111    75    74    1
   112    67    68    1
   113    26    27    1
   114    26    23    1
   115    27    28   ar
   116    25    24    2
   117    32    33    1
   118    32    30   ar
   119    70    69    2
   120    24    23    1
   121     6     5    1
   122     6     7    1
   123    23    22    1
   124    28    30   ar
   125    68    69    1
   126    68    71    1
   127     4     3    2
   128    73    71    1
   129    71    72    1
   130   112   111    1
   131     5     2    1
   132     7     9   ar
   133     7     8   ar
   134     3     2    1
   135   111   108    1
   136     2     1    1
   137   108   109    1
   138   108   107    1
   139   110   109    2
   140   107   101   am
   141   102   101    2
   142   101   100    1
   143   100    99    1
   144   100   103    1
   145   103   104    1
   146   105   104    2
   147   104   106   am
