@<TRIPOS>MOLECULE
tmp/2f38A01.pdb
 214 212 0 0 0
SMALL
GASTEIGER

@<TRIPOS>ATOM
      1  N         16.5430   -6.8200   48.1580 N.3    20  TYR20      -0.1241
      2  CA        15.9080   -7.7980   47.2780 C.3    20  TYR20       0.1605
      3  C         15.1570   -8.9210   48.0060 C.2    20  TYR20       0.2264
      4  O         15.6340   -9.4730   48.9920 O.2    20  TYR20      -0.2867
      5  CB        16.9180   -8.4440   46.3230 C.3    20  TYR20       0.0534
      6  CG        16.2520   -9.5060   45.4690 C.ar   20  TYR20      -0.0201
      7  CD1       15.4300   -9.1480   44.3970 C.ar   20  TYR20      -0.0009
      8  CD2       16.3700  -10.8640   45.7830 C.ar   20  TYR20      -0.0009
      9  CE1       14.7380  -10.1060   43.6630 C.ar   20  TYR20       0.0417
     10  CE2       15.6760  -11.8400   45.0490 C.ar   20  TYR20       0.0417
     11  CZ        14.8660  -11.4530   43.9970 C.ar   20  TYR20       0.1957
     12  OH        14.1780  -12.4010   43.2780 O.3    20  TYR20      -0.2866
     13  N         15.8780   -4.1450   38.8760 N.3    50  LEU50      -0.1245
     14  CA        15.4950   -5.5510   38.8560 C.3    50  LEU50       0.1561
     15  C         14.6250   -5.9590   40.0460 C.2    50  LEU50       0.2260
     16  O         13.7620   -6.8200   39.9150 O.2    50  LEU50      -0.2867
     17  CB        16.7450   -6.4240   38.8560 C.3    50  LEU50       0.0270
     18  CG        16.5050   -7.9370   38.9070 C.3    50  LEU50       0.0019
     19  CD1       16.0800   -8.4130   37.5240 C.3    50  LEU50       0.0001
     20  CD2       17.7720   -8.6710   39.3740 C.3    50  LEU50       0.0001
     21  N         19.7460   -2.1840   34.8340 N.3    82  TRP82      -0.1227
     22  CA        19.5560   -3.5580   34.3730 C.3    82  TRP82       0.1737
     23  C         20.2620   -3.8430   33.0350 C.2    82  TRP82       0.2596
     24  O         20.5500   -2.9250   32.2640 O.2    82  TRP82      -0.2718
     25  CB        18.0680   -3.8940   34.2870 C.3    82  TRP82       0.0564
     26  CG        17.8250   -5.3580   34.1070 C.ar   82  TRP82       0.0003
     27  CD1       17.0050   -5.9440   33.1850 C.ar   82  TRP82       0.0946
     28  CD2       18.4800   -6.4290   34.8020 C.ar   82  TRP82       0.0152
     29  NE1       17.1130   -7.3120   33.2560 N.ar   82  TRP82      -0.2442
     30  CE2       18.0100   -7.6390   34.2400 C.ar   82  TRP82       0.0810
     31  CE3       19.4170   -6.4860   35.8400 C.ar   82  TRP82       0.0012
     32  CZ2       18.4480   -8.8970   34.6830 C.ar   82  TRP82       0.0191
     33  CZ3       19.8570   -7.7340   36.2830 C.ar   82  TRP82       0.0001
     34  CH2       19.3700   -8.9220   35.7030 C.ar   82  TRP82       0.0015
     35  N         20.5390   -5.1180   32.7700 N.am   83  SER83      -0.1952
     36  CA        21.2550   -5.5380   31.5680 C.3    83  SER83       0.1924
     37  C         20.5400   -5.2860   30.2470 C.2    83  SER83       0.2314
     38  O         21.1270   -5.4160   29.1720 O.2    83  SER83      -0.2863
     39  CB        21.6240   -7.0170   31.6820 C.3    83  SER83       0.2116
     40  OG        22.4230   -7.2540   32.8300 O.3    83  SER83      -0.2180
     41  N         24.5910   -3.3170   36.8780 N.3   113  HIS113     -0.1226
     42  CA        24.2270   -4.5330   37.6000 C.3   113  HIS113      0.1752
     43  C         25.0030   -5.8000   37.2080 C.2   113  HIS113      0.2597
     44  O         25.3610   -6.6140   38.0680 O.2   113  HIS113     -0.2718
     45  CB        22.7230   -4.7680   37.4250 C.3   113  HIS113      0.0759
     46  CG        22.0930   -5.5700   38.5220 C.ar  113  HIS113      0.0818
     47  ND1       20.7950   -5.3650   38.9310 N.ar  113  HIS113     -0.2268
     48  CD2       22.5650   -6.5950   39.2690 C.ar  113  HIS113      0.1154
     49  CE1       20.4930   -6.2280   39.8830 C.ar  113  HIS113      0.1986
     50  NE2       21.5490   -6.9870   40.1070 N.ar  113  HIS113     -0.2212
     51  N         25.2490   -5.9660   35.9110 N.am  114  SER114     -0.1938
     52  CA        25.9450   -7.1370   35.4030 C.3   114  SER114      0.2040
     53  C         26.5610   -6.8190   34.0430 C.2   114  SER114      0.2485
     54  O         25.9830   -6.0760   33.2580 O.2   114  SER114     -0.2729
     55  CB        24.9450   -8.2900   35.2760 C.3   114  SER114      0.2129
     56  OG        25.4380   -9.3330   34.4530 O.3   114  SER114     -0.2179
     57  N         27.7400   -7.3820   33.7450 N.am  115  PRO115     -0.2715
     58  CA        28.4090   -7.1360   32.4590 C.3   115  PRO115      0.1536
     59  C         27.7560   -7.8820   31.2970 C.2   115  PRO115      0.2598
     60  O         28.1100   -7.6870   30.1320 O.2   115  PRO115     -0.2715
     61  CB        29.8310   -7.6300   32.7080 C.3   115  PRO115      0.0310
     62  CG        29.6420   -8.7260   33.6940 C.3   115  PRO115      0.0237
     63  CD        28.5370   -8.2700   34.6090 C.3   115  PRO115      0.0939
     64  N         26.7850   -8.7250   31.6250 N.am  116  MET116     -0.1978
     65  CA        26.0820   -9.5150   30.6220 C.3   116  MET116      0.1605
     66  C         24.8520   -8.7990   30.0650 C.2   116  MET116      0.2287
     67  O         23.7820   -8.8230   30.6650 O.2   116  MET116     -0.2864
     68  CB        25.6730  -10.8640   31.2170 C.3   116  MET116      0.0413
     69  CG        26.8460  -11.7450   31.6300 C.3   116  MET116      0.0598
     70  SD        26.3780  -13.4560   31.9240 S.3   116  MET116     -0.1393
     71  CE        25.4820  -13.3120   33.4530 C.3   116  MET116      0.0692
     72  N         21.5840   -7.7790   27.8120 N.3   118  LEU118     -0.1245
     73  CA        20.3660   -8.4920   27.4370 C.3   118  LEU118      0.1561
     74  C         19.5970   -7.7110   26.3840 C.2   118  LEU118      0.2260
     75  O         19.7660   -6.5000   26.2440 O.2   118  LEU118     -0.2867
     76  CB        19.4650   -8.6650   28.6640 C.3   118  LEU118      0.0270
     77  CG        19.2610  -10.0300   29.3190 C.3   118  LEU118      0.0019
     78  CD1       20.3590  -11.0130   28.9270 C.3   118  LEU118      0.0001
     79  CD2       19.2160   -9.8220   30.8240 C.3   118  LEU118      0.0001
     80  N         13.6150  -10.1210   31.8030 N.3   125  SER125     -0.1217
     81  CA        14.2840  -11.3190   31.3130 C.3   125  SER125      0.1889
     82  C         13.6570  -11.7410   29.9880 C.2   125  SER125      0.2288
     83  O         12.7540  -12.5770   29.9470 O.2   125  SER125     -0.2866
     84  CB        14.1550  -12.4560   32.3320 C.3   125  SER125      0.2089
     85  OG        15.0530  -13.5140   32.0320 O.3   125  SER125     -0.2183
     86  N         17.1740  -17.2550   27.5110 N.3   133  VAL133     -0.1245
     87  CA        17.4020  -15.8110   27.6090 C.3   133  VAL133      0.1561
     88  C         18.1230  -15.2830   26.3710 C.2   133  VAL133      0.2260
     89  O         19.1460  -15.8280   25.9490 O.2   133  VAL133     -0.2867
     90  CB        18.2500  -15.4510   28.8650 C.3   133  VAL133      0.0252
     91  CG1       18.4390  -13.9410   28.9630 C.3   133  VAL133      0.0019
     92  CG2       17.5660  -15.9730   30.1230 C.3   133  VAL133      0.0019
     93  N         20.4230  -12.7570   24.5730 N.3   135  PHE135     -0.1241
     94  CA        21.5040  -11.8350   24.8980 C.3   135  PHE135      0.1605
     95  C         21.5570  -10.6590   23.9320 C.2   135  PHE135      0.2264
     96  O         20.8580  -10.6340   22.9260 O.2   135  PHE135     -0.2867
     97  CB        22.8500  -12.5630   24.8590 C.3   135  PHE135      0.0534
     98  CG        22.9060  -13.8090   25.7070 C.ar  135  PHE135     -0.0203
     99  CD1       23.7500  -14.8610   25.3570 C.ar  135  PHE135     -0.0042
    100  CD2       22.1550  -13.9180   26.8770 C.ar  135  PHE135     -0.0042
    101  CE1       23.8500  -16.0030   26.1620 C.ar  135  PHE135     -0.0003
    102  CE2       22.2490  -15.0540   27.6840 C.ar  135  PHE135     -0.0003
    103  CZ        23.0990  -16.0950   27.3250 C.ar  135  PHE135     -0.0000
    104  N         29.5970   -7.5340   39.4540 N.3   163  ASN163     -0.1240
    105  CA        29.8190   -8.8100   38.7770 C.3   163  ASN163      0.1653
    106  C         30.8260   -8.7660   37.6350 C.2   163  ASN163      0.2266
    107  O         30.7410   -9.5630   36.7050 O.2   163  ASN163     -0.2867
    108  CB        28.4880   -9.3580   38.2540 C.3   163  ASN163      0.1155
    109  CG        27.5440   -9.7460   39.3670 C.2   163  ASN163      0.2627
    110  OD1       27.8790  -10.5530   40.2230 O.2   163  ASN163     -0.2716
    111  ND2       26.3540   -9.1710   39.3590 N.am  163  ASN163     -0.0877
    112  N         27.8550   -9.5020   48.2610 N.3   212  TYR212     -0.1241
    113  CA        26.4390   -9.8510   48.2730 C.3   212  TYR212      0.1605
    114  C         26.3770  -11.3700   48.4510 C.2   212  TYR212      0.2264
    115  O         27.3540  -12.0780   48.1570 O.2   212  TYR212     -0.2867
    116  CB        25.7000   -9.3840   46.9960 C.3   212  TYR212      0.0534
    117  CG        26.0220  -10.0790   45.6880 C.ar  212  TYR212     -0.0201
    118  CD1       26.6820   -9.3960   44.6680 C.ar  212  TYR212     -0.0009
    119  CD2       25.6030  -11.3870   45.4390 C.ar  212  TYR212     -0.0009
    120  CE1       26.9120   -9.9920   43.4260 C.ar  212  TYR212      0.0417
    121  CE2       25.8250  -11.9950   44.2060 C.ar  212  TYR212      0.0417
    122  CZ        26.4800  -11.2920   43.1990 C.ar  212  TYR212      0.1957
    123  OH        26.6970  -11.8740   41.9670 O.3   212  TYR212     -0.2866
    124  N         16.9520  -19.5860   46.5710 N.3   220  ASP220     -0.1239
    125  CA        15.7320  -19.7460   45.7870 C.3   220  ASP220      0.1674
    126  C         15.9460  -20.9520   44.8790 C.2   220  ASP220      0.2266
    127  O         16.8550  -20.9530   44.0600 O.2   220  ASP220     -0.2867
    128  CB        15.4840  -18.4880   44.9530 C.3   220  ASP220      0.1410
    129  CG        14.0740  -18.4060   44.4280 C.2   220  ASP220      0.3668
    130  OD1       13.4030  -17.3970   44.7050 O.co2 220  ASP220     -0.2456
    131  OD2       13.6370  -19.3450   43.7370 O.co2 220  ASP220     -0.2456
    132  N         16.8130  -20.3760   41.2990 N.3   223  TRP223     -0.1241
    133  CA        18.1150  -19.8290   40.9060 C.3   223  TRP223      0.1605
    134  C         19.3620  -20.2950   41.6510 C.2   223  TRP223      0.2264
    135  O         20.4680  -19.9070   41.2850 O.2   223  TRP223     -0.2867
    136  CB        18.0730  -18.3010   40.9900 C.3   223  TRP223      0.0550
    137  CG        16.8770  -17.6970   40.3620 C.ar  223  TRP223      0.0003
    138  CD1       15.7870  -17.1710   41.0010 C.ar  223  TRP223      0.0946
    139  CD2       16.6340  -17.5480   38.9620 C.ar  223  TRP223      0.0152
    140  NE1       14.8800  -16.7020   40.0790 N.ar  223  TRP223     -0.2442
    141  CE2       15.3750  -16.9180   38.8210 C.ar  223  TRP223      0.0810
    142  CE3       17.3600  -17.8790   37.8100 C.ar  223  TRP223      0.0012
    143  CZ2       14.8240  -16.6190   37.5740 C.ar  223  TRP223      0.0191
    144  CZ3       16.8110  -17.5820   36.5690 C.ar  223  TRP223      0.0001
    145  CH2       15.5530  -16.9550   36.4620 C.ar  223  TRP223      0.0015
    146  N         24.5440  -18.6400   42.7730 N.3   302  PHE302     -0.1241
    147  CA        23.7280  -18.4340   41.5850 C.3   302  PHE302      0.1605
    148  C         24.0280  -19.5560   40.6020 C.2   302  PHE302      0.2264
    149  O         25.1800  -19.8250   40.2960 O.2   302  PHE302     -0.2867
    150  CB        24.0380  -17.0700   40.9550 C.3   302  PHE302      0.0534
    151  CG        23.2800  -16.7850   39.6690 C.ar  302  PHE302     -0.0203
    152  CD1       23.8850  -16.0560   38.6480 C.ar  302  PHE302     -0.0042
    153  CD2       21.9630  -17.2100   39.4910 C.ar  302  PHE302     -0.0042
    154  CE1       23.1940  -15.7500   37.4650 C.ar  302  PHE302     -0.0003
    155  CE2       21.2580  -16.9090   38.3110 C.ar  302  PHE302     -0.0003
    156  CZ        21.8800  -16.1750   37.2980 C.ar  302  PHE302     -0.0000
    157  N         24.2370  -20.1890   37.3570 N.3   304  SER304     -0.1217
    158  CA        24.4140  -19.4510   36.1040 C.3   304  SER304      0.1889
    159  C         24.9050  -20.2650   34.9220 C.2   304  SER304      0.2288
    160  O         24.8970  -19.7870   33.7920 O.2   304  SER304     -0.2866
    161  CB        25.4000  -18.3000   36.3400 C.3   304  SER304      0.2089
    162  OG        26.5690  -18.7630   37.0060 O.3   304  SER304     -0.2183
    163  N         24.3040  -19.6300   31.4290 N.3   307  PHE307     -0.1241
    164  CA        24.6730  -18.3530   30.8160 C.3   307  PHE307      0.1605
    165  C         26.1570  -18.3000   30.5100 C.2   307  PHE307      0.2264
    166  O         26.6610  -17.2830   30.0330 O.2   307  PHE307     -0.2867
    167  CB        24.3300  -17.1870   31.7430 C.3   307  PHE307      0.0534
    168  CG        22.9570  -17.2640   32.3230 C.ar  307  PHE307     -0.0203
    169  CD1       22.7710  -17.2490   33.6970 C.ar  307  PHE307     -0.0042
    170  CD2       21.8450  -17.3710   31.4940 C.ar  307  PHE307     -0.0042
    171  CE1       21.4960  -17.3400   34.2440 C.ar  307  PHE307     -0.0003
    172  CE2       20.5630  -17.4630   32.0310 C.ar  307  PHE307     -0.0003
    173  CZ        20.3910  -17.4470   33.4130 C.ar  307  PHE307     -0.0000
    174  N         27.2830  -16.7460   27.4260 N.3   310  HIS310     -0.1241
    175  CA        27.3020  -15.3050   27.2210 C.3   310  HIS310      0.1621
    176  C         28.7580  -14.8670   27.1560 C.2   310  HIS310      0.2264
    177  O         29.5340  -15.1150   28.0780 O.2   310  HIS310     -0.2867
    178  CB        26.6000  -14.5630   28.3600 C.3   310  HIS310      0.0745
    179  CG        26.3020  -13.1310   28.0360 C.ar  310  HIS310      0.0817
    180  ND1       27.2910  -12.2030   27.7830 N.ar  310  HIS310     -0.2268
    181  CD2       25.1270  -12.4850   27.8530 C.ar  310  HIS310      0.1154
    182  CE1       26.7400  -11.0520   27.4550 C.ar  310  HIS310      0.1986
    183  NE2       25.4270  -11.1930   27.4910 N.ar  310  HIS310     -0.2212
    184  N         30.1540  -13.5180   30.2770 N.3   313  TYR313     -0.1228
    185  CA        29.9870  -14.3040   31.4900 C.3   313  TYR313      0.1721
    186  C         31.2390  -14.0210   32.3150 C.2   313  TYR313      0.2437
    187  O         32.3500  -14.2840   31.8650 O.2   313  TYR313     -0.2733
    188  CB        29.9060  -15.7820   31.1170 C.3   313  TYR313      0.0547
    189  CG        29.6270  -16.7150   32.2630 C.ar  313  TYR313     -0.0200
    190  CD1       30.5300  -17.7260   32.5850 C.ar  313  TYR313     -0.0009
    191  CD2       28.4500  -16.6190   33.0040 C.ar  313  TYR313     -0.0009
    192  CE1       30.2740  -18.6240   33.6050 C.ar  313  TYR313      0.0417
    193  CE2       28.1810  -17.5180   34.0370 C.ar  313  TYR313      0.0417
    194  CZ        29.1040  -18.5210   34.3260 C.ar  313  TYR313      0.1957
    195  OH        28.8550  -19.4440   35.3140 O.3   313  TYR313     -0.2866
    196  N         31.0770  -13.4980   33.5450 N.am  314  PRO314     -0.2718
    197  CA        32.2610  -13.1970   34.3610 C.3   314  PRO314      0.1535
    198  C         33.0230  -14.3720   34.9690 C.2   314  PRO314      0.2598
    199  O         34.2060  -14.2500   35.2600 O.2   314  PRO314     -0.2715
    200  CB        31.7150  -12.2700   35.4420 C.3   314  PRO314      0.0310
    201  CG        30.2950  -12.7140   35.6020 C.3   314  PRO314      0.0237
    202  CD        29.8250  -13.1500   34.2450 C.3   314  PRO314      0.0939
    203  N         32.3620  -15.5100   35.1420 N.am  315  TYR315     -0.1974
    204  CA        33.0020  -16.6590   35.7670 C.3   315  TYR315      0.1639
    205  C         33.8450  -17.5660   34.8740 C.2   315  TYR315      0.2290
    206  O         34.3060  -18.6120   35.3200 O.2   315  TYR315     -0.2864
    207  CB        31.9440  -17.4880   36.5060 C.3   315  TYR315      0.0560
    208  CG        31.2540  -16.7310   37.6220 C.ar  315  TYR315     -0.0198
    209  CD1       31.9420  -15.7770   38.3780 C.ar  315  TYR315     -0.0009
    210  CD2       29.9180  -16.9700   37.9280 C.ar  315  TYR315     -0.0009
    211  CE1       31.3110  -15.0820   39.4150 C.ar  315  TYR315      0.0417
    212  CE2       29.2810  -16.2820   38.9630 C.ar  315  TYR315      0.0417
    213  CZ        29.9870  -15.3410   39.7010 C.ar  315  TYR315      0.1957
    214  OH        29.3740  -14.6830   40.7390 O.3   315  TYR315     -0.2866
@<TRIPOS>BOND
     1    96    95    2
     2    95    94    1
     3    93    94    1
     4    97    94    1
     5    97    98    1
     6    99    98   ar
     7    99   101   ar
     8    98   100   ar
     9    89    88    2
    10   101   103   ar
    11    75    74    2
    12    88    87    1
    13    74    73    1
    14   100   102   ar
    15   176   175    1
    16   176   177    2
    17   175   174    1
    18   175   178    1
    19   103   102   ar
    20    73    72    1
    21    73    76    1
    22   182   183   ar
    23   182   180   ar
    24   183   181   ar
    25    86    87    1
    26    87    90    1
    27   180   179   ar
    28   181   179   ar
    29   179   178    1
    30    76    77    1
    31    90    91    1
    32    90    92    1
    33    78    77    1
    34    38    37    2
    35    77    79    1
    36    83    82    2
    37    82    81    1
    38   166   165    2
    39    66    65    1
    40    66    67    2
    41    60    59    2
    42    37    36    1
    43   184   185    1
    44   165   164    1
    45    65    68    1
    46    65    64    1
    47   164   163    1
    48   164   167    1
    49   188   185    1
    50   188   189    1
    51    68    69    1
    52    59    64   am
    53    59    58    1
    54    81    80    1
    55    81    84    1
    56   185   186    1
    57   170   172   ar
    58   170   168   ar
    59    36    39    1
    60    36    35    1
    61    69    70    1
    62    39    40    1
    63   167   168    1
    64   187   186    2
    65    70    71    1
    66   172   173   ar
    67    85    84    1
    68   189   190   ar
    69   189   191   ar
    70    24    23    2
    71   186   196   am
    72   168   169   ar
    73    58    61    1
    74    58    57    1
    75   190   192   ar
    76    61    62    1
    77    35    23   am
    78   191   193   ar
    79    23    22    1
    80    27    29   ar
    81    27    26   ar
    82    29    30   ar
    83    54    53    2
    84   173   171   ar
    85   196   202    1
    86   196   197    1
    87   192   194   ar
    88    62    63    1
    89   169   171   ar
    90    57    53   am
    91    57    63    1
    92   160   159    2
    93   193   194   ar
    94    53    52    1
    95    26    25    1
    96    26    28   ar
    97    30    32   ar
    98    30    28   ar
    99   202   201    1
   100    25    22    1
   101   194   195    1
   102   197   198    1
   103   197   200    1
   104    22    21    1
   105    56    55    1
   106    32    34   ar
   107    28    31   ar
   108   205   206    2
   109   205   204    1
   110   159   158    1
   111   198   203   am
   112   198   199    2
   113   203   204    1
   114    55    52    1
   115    52    51    1
   116   200   201    1
   117    34    33   ar
   118   204   207    1
   119    31    33   ar
   120    51    43   am
   121   158   161    1
   122   158   157    1
   123   161   162    1
   124   145   144   ar
   125   145   143   ar
   126   207   208    1
   127   144   142   ar
   128   107   106    2
   129    41    42    1
   130    43    42    1
   131    43    44    2
   132   156   154   ar
   133   156   155   ar
   134    45    42    1
   135    45    46    1
   136   154   152   ar
   137    19    18    1
   138   143   141   ar
   139   208   210   ar
   140   208   209   ar
   141   106   105    1
   142   142   139   ar
   143   210   212   ar
   144   108   105    1
   145   108   109    1
   146   155   153   ar
   147   209   211   ar
   148    46    47   ar
   149    46    48   ar
   150   152   151   ar
   151   105   104    1
   152   141   139   ar
   153   141   140   ar
   154    14    17    1
   155    14    13    1
   156    14    15    1
   157    17    18    1
   158    18    20    1
   159    47    49   ar
   160   139   137   ar
   161   212   213   ar
   162    48    50   ar
   163   111   109   am
   164   109   110    2
   165   211   213   ar
   166   153   151   ar
   167   151   150    1
   168   213   214    1
   169    49    50   ar
   170    16    15    2
   171   140   138   ar
   172   149   148    2
   173   137   136    1
   174   137   138   ar
   175   148   147    1
   176   133   136    1
   177   133   132    1
   178   133   134    1
   179   150   147    1
   180   135   134    2
   181   147   146    1
   182   123   122    1
   183   122   120   ar
   184   122   121   ar
   185    12    11    1
   186   120   118   ar
   187     9    11   ar
   188     9     7   ar
   189   131   129   ar
   190    11    10   ar
   191   127   126    2
   192   121   119   ar
   193     7     6   ar
   194   129   130   ar
   195   129   128    1
   196   118   117   ar
   197   126   125    1
   198   128   125    1
   199    10     8   ar
   200   119   117   ar
   201     6     8   ar
   202     6     5    1
   203   117   116    1
   204   125   124    1
   205     5     2    1
   206   116   113    1
   207     2     3    1
   208     2     1    1
   209     3     4    2
   210   115   114    2
   211   112   113    1
   212   113   114    1
