@<TRIPOS>MOLECULE
tmp/2f3kA00.pdb
 112 105 0 0 0
SMALL
GASTEIGER

@<TRIPOS>ATOM
      1  N         21.5160   -5.3600    3.0040 N.3     8  ARG8       -0.1245
      2  CA        22.1940   -4.6340    4.0810 C.3     8  ARG8        0.1563
      3  C         23.2740   -3.7220    3.4850 C.2     8  ARG8        0.2260
      4  O         24.0240   -4.1470    2.6080 O.2     8  ARG8       -0.2867
      5  CB        22.8150   -5.6130    5.0820 C.3     8  ARG8        0.0307
      6  CG        21.7980   -6.3740    5.8970 C.3     8  ARG8        0.0489
      7  CD        22.4520   -7.4420    6.7680 C.3     8  ARG8        0.2205
      8  NE        21.4680   -8.0940    7.6460 N.pl3   8  ARG8       -0.0865
      9  CZ        21.6820   -9.2540    8.2710 C.cat   8  ARG8        0.5346
     10  NH1       22.8230   -9.9130    8.0940 N.pl3   8  ARG8        0.1354
     11  NH2       20.7520   -9.7670    9.0570 N.pl3   8  ARG8        0.1354
     12  N         28.5170   -2.2150    8.6880 N.3    23  LEU23      -0.1245
     13  CA        27.1580   -1.8470    8.3560 C.3    23  LEU23       0.1561
     14  C         26.9550   -0.3520    8.5800 C.2    23  LEU23       0.2260
     15  O         27.1940    0.1530    9.6730 O.2    23  LEU23      -0.2867
     16  CB        26.2170   -2.6280    9.2580 C.3    23  LEU23       0.0270
     17  CG        24.7260   -2.4310    9.0720 C.3    23  LEU23       0.0019
     18  CD1       24.2870   -3.0360    7.7520 C.3    23  LEU23       0.0001
     19  CD2       23.9830   -3.0600   10.2440 C.3    23  LEU23       0.0001
     20  N         24.8030    2.3400    9.5430 N.3    25  ASP25      -0.1239
     21  CA        23.5600    2.3110   10.3270 C.3    25  ASP25       0.1674
     22  C         23.1520    3.6940   10.8350 C.2    25  ASP25       0.2266
     23  O         23.7420    4.2310   11.7760 O.2    25  ASP25      -0.2867
     24  CB        23.6930    1.3520   11.5120 C.3    25  ASP25       0.1410
     25  CG        22.3910    1.1920   12.2760 C.2    25  ASP25       0.3668
     26  OD1       22.3730    0.4550   13.2790 O.co2  25  ASP25      -0.2456
     27  OD2       21.3780    1.7840   11.8450 O.co2  25  ASP25      -0.2456
     28  N         20.4850    4.2680   12.4040 N.3    27  GLY27      -0.1210
     29  CA        19.8120    4.0690   13.6870 C.3    27  GLY27       0.1956
     30  C         20.7650    4.0830   14.8790 C.2    27  GLY27       0.2612
     31  O         20.3350    4.2470   16.0260 O.2    27  GLY27      -0.2717
     32  N         22.0570    3.9200   14.6050 N.am   28  ALA28      -0.1965
     33  CA        23.0660    3.8220   15.6610 C.3    28  ALA28       0.1728
     34  C         23.6740    5.1840   15.9710 C.2    28  ALA28       0.2616
     35  O         24.1830    5.8590   15.0780 O.2    28  ALA28      -0.2715
     36  CB        24.1550    2.8490   15.2540 C.3    28  ALA28       0.0334
     37  N         23.6430    5.5750   17.2410 N.am   29  ASP29      -0.1957
     38  CA        24.2570    6.8360   17.6690 C.3    29  ASP29       0.1840
     39  C         25.7650    6.7310   17.5260 C.2    29  ASP29       0.2622
     40  O         26.4600    7.7400   17.3090 O.2    29  ASP29      -0.2715
     41  CB        23.9510    7.1180   19.1430 C.3    29  ASP29       0.1450
     42  CG        22.4680    7.3100   19.4280 C.2    29  ASP29       0.3671
     43  OD1       21.7260    7.8140   18.5610 O.co2  29  ASP29      -0.2456
     44  OD2       22.0620    7.0300   20.5810 O.co2  29  ASP29      -0.2456
     45  N         26.2630    5.5160   17.7410 N.am   30  ASP30      -0.1971
     46  CA        27.6900    5.2680   17.9480 C.3    30  ASP30       0.1709
     47  C         28.2160    4.2150   16.9800 C.2    30  ASP30       0.2293
     48  O         27.4550    3.5360   16.2990 O.2    30  ASP30      -0.2864
     49  CB        27.9420    4.7820   19.3800 C.3    30  ASP30       0.1436
     50  CG        27.3210    5.6820   20.4250 C.2    30  ASP30       0.3671
     51  OD1       27.6210    6.8950   20.4290 O.co2  30  ASP30      -0.2456
     52  OD2       26.5400    5.1680   21.2530 O.co2  30  ASP30      -0.2456
     53  N         30.2470    0.7260   16.7020 N.3    32  VAL32      -0.1245
     54  CA        30.5320   -0.4370   17.5410 C.3    32  VAL32       0.1561
     55  C         31.1490   -1.5320   16.6870 C.2    32  VAL32       0.2260
     56  O         30.5280   -2.0110   15.7350 O.2    32  VAL32      -0.2867
     57  CB        29.2460   -0.9900   18.2020 C.3    32  VAL32       0.0252
     58  CG1       29.5840   -2.1360   19.1670 C.3    32  VAL32       0.0019
     59  CG2       28.5040    0.1210   18.9240 C.3    32  VAL32       0.0019
     60  N         26.5150    0.4930   26.6340 N.3    47  ILE47      -0.1231
     61  CA        25.7460    0.9150   25.4700 C.3    47  ILE47       0.1692
     62  C         24.5040    0.0260   25.3730 C.2    47  ILE47       0.2593
     63  O         24.5700   -1.1690   25.6560 O.2    47  ILE47      -0.2718
     64  CB        26.6020    0.7740   24.1670 C.3    47  ILE47       0.0266
     65  CG1       27.0690    2.1500   23.6760 C.3    47  ILE47       0.0019
     66  CG2       25.8400    0.0050   23.0820 C.3    47  ILE47       0.0020
     67  CD1       26.2400    2.7360   22.5570 C.3    47  ILE47       0.0001
     68  N         23.3790    0.6110   24.9720 N.am   48  GLY48      -0.1942
     69  CA        22.1040   -0.0990   24.9810 C.3    48  GLY48       0.2014
     70  C         21.3850   -0.0630   23.6470 C.2    48  GLY48       0.2639
     71  O         21.4880    0.9120   22.8980 O.2    48  GLY48      -0.2714
     72  N         20.6580   -1.1370   23.3540 N.am   49  GLY49      -0.1939
     73  CA        19.7730   -1.1940   22.1930 C.3    49  GLY49       0.2014
     74  C         18.6480   -2.1740   22.4490 C.2    49  GLY49       0.2638
     75  O         18.2850   -2.4340   23.6020 O.2    49  GLY49      -0.2714
     76  N         18.0980   -2.7440   21.3880 N.am   50  ILE50      -0.1977
     77  CA        17.1210   -3.7920   21.5600 C.3    50  ILE50       0.1596
     78  C         17.7850   -4.9510   22.2820 C.2    50  ILE50       0.2287
     79  O         18.9190   -5.3200   21.9810 O.2    50  ILE50      -0.2864
     80  CB        16.5310   -4.2630   20.2180 C.3    50  ILE50       0.0276
     81  CG1       15.5810   -3.1950   19.6610 C.3    50  ILE50       0.0022
     82  CG2       15.7920   -5.6040   20.4000 C.3    50  ILE50       0.0022
     83  CD1       14.6590   -3.6880   18.5760 C.3    50  ILE50       0.0001
     84  N         29.2690   -7.9090   19.2900 N.3    80  THR80      -0.1204
     85  CA        28.2550   -7.6390   18.2650 C.3    80  THR80       0.1979
     86  C         28.4240   -8.6330   17.1000 C.2    80  THR80       0.2460
     87  O         29.5400   -9.0790   16.8290 O.2    80  THR80      -0.2732
     88  CB        28.3720   -6.1880   17.7390 C.3    80  THR80       0.1783
     89  OG1       27.5040   -6.0170   16.6190 O.3    80  THR80      -0.2211
     90  CG2       29.8010   -5.8620   17.3180 C.3    80  THR80       0.0376
     91  N         27.3090   -9.0200   16.4510 N.am   81  PRO81      -0.2717
     92  CA        27.3910   -9.9070   15.2940 C.3    81  PRO81       0.1535
     93  C         27.8390   -9.1730   14.0590 C.2    81  PRO81       0.2598
     94  O         28.0620   -9.7910   13.0120 O.2    81  PRO81      -0.2715
     95  CB        25.9480  -10.3960   15.1240 C.3    81  PRO81       0.0310
     96  CG        25.1170   -9.3100   15.6860 C.3    81  PRO81       0.0237
     97  CD        25.9120   -8.6920   16.7960 C.3    81  PRO81       0.0939
     98  N         27.9600   -7.8530   14.1810 N.am   82  VAL82      -0.1978
     99  CA        28.1780   -6.9980   13.0420 C.3    82  VAL82       0.1596
    100  C         28.9950   -5.7720   13.4500 C.2    82  VAL82       0.2287
    101  O         28.6960   -5.1090   14.4460 O.2    82  VAL82      -0.2864
    102  CB        26.8340   -6.5410   12.4420 C.3    82  VAL82       0.0276
    103  CG1       27.0630   -5.6510   11.2420 C.3    82  VAL82       0.0022
    104  CG2       25.9830   -7.7570   12.0670 C.3    82  VAL82       0.0022
    105  N         29.5320   -2.0870   13.1820 N.3    84  ILE84      -0.1245
    106  CA        28.5110   -1.0740   12.9590 C.3    84  ILE84       0.1561
    107  C         29.1650    0.2910   12.8360 C.2    84  ILE84       0.2260
    108  O         29.9770    0.6690   13.6660 O.2    84  ILE84      -0.2867
    109  CB        27.4870   -1.0540   14.1200 C.3    84  ILE84       0.0252
    110  CG1       26.6560   -2.3440   14.1120 C.3    84  ILE84       0.0019
    111  CG2       26.5840    0.1530   14.0210 C.3    84  ILE84       0.0019
    112  CD1       26.1590   -2.7620   15.4840 C.3    84  ILE84       0.0001
@<TRIPOS>BOND
     1     4     3    2
     2     1     2    1
     3     3     2    1
     4     2     5    1
     5     5     6    1
     6     6     7    1
     7     7     8    1
     8     8     9    2
     9    18    17    1
    10    10     9    1
    11     9    11    1
    12    13    14    1
    13    13    12    1
    14    13    16    1
    15    14    15    2
    16    17    16    1
    17    17    19    1
    18    20    21    1
    19    21    22    1
    20    21    24    1
    21    22    23    2
    22   103   102    1
    23    24    25    1
    24    27    25   ar
    25   104   102    1
    26    25    26   ar
    27    28    29    1
    28   102    99    1
    29   107   106    1
    30   107   108    2
    31   106   105    1
    32   106   109    1
    33    94    93    2
    34    99   100    1
    35    99    98    1
    36   100   101    2
    37    29    30    1
    38   111   109    1
    39    93    98   am
    40    93    92    1
    41   110   109    1
    42   110   112    1
    43    32    30   am
    44    32    33    1
    45    30    31    2
    46    35    34    2
    47    95    92    1
    48    95    96    1
    49    36    33    1
    50    92    91    1
    51    33    34    1
    52    96    97    1
    53    56    55    2
    54    34    37   am
    55    48    47    2
    56    91    97    1
    57    91    86   am
    58    89    88    1
    59    55    54    1
    60    53    54    1
    61    87    86    2
    62    47    46    1
    63    86    85    1
    64    37    38    1
    65    40    39    2
    66    90    88    1
    67    39    38    1
    68    39    45   am
    69    54    57    1
    70    38    41    1
    71    88    85    1
    72    45    46    1
    73    46    49    1
    74    57    59    1
    75    57    58    1
    76    85    84    1
    77    43    42   ar
    78    83    81    1
    79    41    42    1
    80    49    50    1
    81    42    44   ar
    82    81    80    1
    83    80    82    1
    84    80    77    1
    85    50    51   ar
    86    50    52   ar
    87    76    77    1
    88    76    74   am
    89    77    78    1
    90    79    78    2
    91    73    74    1
    92    73    72    1
    93    74    75    2
    94    67    65    1
    95    71    70    2
    96    66    64    1
    97    72    70   am
    98    70    69    1
    99    65    64    1
   100    64    61    1
   101    68    69    1
   102    68    62   am
   103    62    61    1
   104    62    63    2
   105    61    60    1
