@<TRIPOS>MOLECULE
tmp/2f3oB00.pdb
 154 148 0 0 0
SMALL
GASTEIGER

@<TRIPOS>ATOM
      1  N        -51.4180   77.3920  148.6730 N.3    79  VAL79      -0.1245
      2  CA       -50.8190   76.1200  148.3080 C.3    79  VAL79       0.1561
      3  C        -49.4380   76.2730  147.6510 C.2    79  VAL79       0.2260
      4  O        -48.6970   75.2930  147.5020 O.2    79  VAL79      -0.2867
      5  CB       -51.8090   75.3230  147.4200 C.3    79  VAL79       0.0252
      6  CG1      -51.6530   75.6580  145.9130 C.3    79  VAL79       0.0019
      7  CG2      -51.7210   73.8500  147.7140 C.3    79  VAL79       0.0019
      8  N        -46.0590   74.3620  148.2300 N.3    82  ARG82      -0.1245
      9  CA       -45.8480   72.9930  147.7480 C.3    82  ARG82       0.1563
     10  C        -44.7940   72.9920  146.6620 C.2    82  ARG82       0.2260
     11  O        -43.8790   72.1680  146.6730 O.2    82  ARG82      -0.2867
     12  CB       -47.1390   72.3950  147.1890 C.3    82  ARG82       0.0307
     13  CG       -48.0870   71.8680  148.2370 C.3    82  ARG82       0.0489
     14  CD       -49.1570   71.0110  147.6090 C.3    82  ARG82       0.2205
     15  NE       -49.4910   69.8950  148.4810 N.pl3  82  ARG82      -0.0865
     16  CZ       -48.9440   68.6830  148.4050 C.cat  82  ARG82       0.5346
     17  NH1      -48.0350   68.4160  147.4830 N.pl3  82  ARG82       0.1354
     18  NH2      -49.3100   67.7270  149.2560 N.pl3  82  ARG82       0.1354
     19  N        -56.4660   62.9880  154.4990 N.3   136  LEU136     -0.1231
     20  CA       -56.3400   63.7120  153.2460 C.3   136  LEU136      0.1693
     21  C        -55.0160   63.3460  152.5960 C.2   136  LEU136      0.2592
     22  O        -54.9700   62.9670  151.4300 O.2   136  LEU136     -0.2718
     23  CB       -56.4070   65.2210  153.4840 C.3   136  LEU136      0.0284
     24  CG       -55.9730   66.1150  152.3210 C.3   136  LEU136      0.0019
     25  CD1      -56.9950   66.0920  151.2130 C.3   136  LEU136      0.0001
     26  CD2      -55.7470   67.5340  152.7860 C.3   136  LEU136      0.0001
     27  N        -53.9490   63.4080  153.3850 N.am  137  TYR137     -0.1976
     28  CA       -52.5830   63.2770  152.8590 C.3   137  TYR137      0.1639
     29  C        -52.1540   61.8760  152.4290 C.2   137  TYR137      0.2290
     30  O        -51.0930   61.7180  151.8260 O.2   137  TYR137     -0.2864
     31  CB       -51.5570   63.9080  153.8130 C.3   137  TYR137      0.0560
     32  CG       -51.5520   65.4060  153.6780 C.ar  137  TYR137     -0.0198
     33  CD1      -51.5440   66.2390  154.8030 C.ar  137  TYR137     -0.0009
     34  CD2      -51.6110   65.9960  152.4110 C.ar  137  TYR137     -0.0009
     35  CE1      -51.5590   67.6220  154.6610 C.ar  137  TYR137      0.0417
     36  CE2      -51.6360   67.3760  152.2560 C.ar  137  TYR137      0.0417
     37  CZ       -51.6110   68.1820  153.3790 C.ar  137  TYR137      0.1957
     38  OH       -51.6330   69.5440  153.2080 O.3   137  TYR137     -0.2866
     39  N        -59.6970   64.2480  148.0260 N.3   143  VAL143     -0.1231
     40  CA       -58.9000   65.4600  148.0000 C.3   143  VAL143      0.1692
     41  C        -59.7960   66.6820  148.1810 C.2   143  VAL143      0.2592
     42  O        -60.8270   66.8070  147.5300 O.2   143  VAL143     -0.2718
     43  CB       -58.0090   65.5420  146.7540 C.3   143  VAL143      0.0266
     44  CG1      -58.6910   64.8910  145.6200 C.3   143  VAL143      0.0020
     45  CG2      -57.6190   66.9850  146.4140 C.3   143  VAL143      0.0020
     46  N        -59.3860   67.5390  149.1240 N.am  144  LEU144     -0.1966
     47  CA       -60.0470   68.7790  149.5210 C.3   144  LEU144      0.1728
     48  C        -59.1930   69.9170  148.9860 C.2   144  LEU144      0.2616
     49  O        -58.0460   70.0590  149.3810 O.2   144  LEU144     -0.2715
     50  CB       -60.0550   68.8640  151.0470 C.3   144  LEU144      0.0311
     51  CG       -61.1450   68.2860  151.9640 C.3   144  LEU144      0.0022
     52  CD1      -61.8820   67.1360  151.3730 C.3   144  LEU144      0.0001
     53  CD2      -60.5750   67.8770  153.3150 C.3   144  LEU144      0.0001
     54  N        -59.7300   70.7240  148.0840 N.am  145  THR145     -0.1951
     55  CA       -58.9270   71.7530  147.4340 C.3   145  THR145      0.1897
     56  C        -59.0720   73.1600  148.0100 C.2   145  THR145      0.2313
     57  O        -58.3860   74.0820  147.5520 O.2   145  THR145     -0.2863
     58  CB       -59.3290   71.9050  145.9880 C.3   145  THR145      0.1794
     59  OG1      -60.6490   72.4540  145.9520 O.3   145  THR145     -0.2208
     60  CG2      -59.2990   70.5780  145.2910 C.3   145  THR145      0.0378
     61  N        -58.1880   74.2860  150.8020 N.3   147  ILE147     -0.1231
     62  CA       -56.8050   74.5160  151.2220 C.3   147  ILE147      0.1692
     63  C        -55.9770   75.4370  150.2970 C.2   147  ILE147      0.2591
     64  O        -55.1650   76.2410  150.7650 O.2   147  ILE147     -0.2718
     65  CB       -56.1280   73.1470  151.4590 C.3   147  ILE147      0.0266
     66  CG1      -56.1240   72.8540  152.9520 C.3   147  ILE147      0.0019
     67  CG2      -54.7120   73.0690  150.9040 C.3   147  ILE147      0.0020
     68  CD1      -55.5790   71.4910  153.2920 C.3   147  ILE147      0.0001
     69  N        -56.2290   75.3710  148.9970 N.am  148  ALA148     -0.1980
     70  CA       -55.5230   76.2280  148.0580 C.3   148  ALA148      0.1597
     71  C        -56.1780   77.5970  147.8770 C.2   148  ALA148      0.2287
     72  O        -55.5870   78.4960  147.2880 O.2   148  ALA148     -0.2864
     73  CB       -55.4150   75.5380  146.7350 C.3   148  ALA148      0.0319
     74  N        -63.2620   79.3570  141.5860 N.3   152  HIS152     -0.1241
     75  CA       -64.3240   78.5720  140.9650 C.3   152  HIS152      0.1621
     76  C        -65.6660   79.2870  140.8150 C.2   152  HIS152      0.2264
     77  O        -66.7080   78.7970  141.2650 O.2   152  HIS152     -0.2867
     78  CB       -64.4980   77.2430  141.6900 C.3   152  HIS152      0.0745
     79  CG       -63.3380   76.3150  141.5290 C.ar  152  HIS152      0.0817
     80  ND1      -62.2230   76.3720  142.3360 N.ar  152  HIS152     -0.2268
     81  CD2      -63.1200   75.2990  140.6590 C.ar  152  HIS152      0.1154
     82  CE1      -61.3640   75.4390  141.9630 C.ar  152  HIS152      0.1986
     83  NE2      -61.8820   74.7780  140.9460 N.ar  152  HIS152     -0.2212
     84  N        -56.5520   82.2070  143.5060 N.3   266  TYR266     -0.1241
     85  CA       -55.7750   81.1620  142.8390 C.3   266  TYR266      0.1605
     86  C        -56.3190   80.7600  141.4570 C.2   266  TYR266      0.2264
     87  O        -57.5050   80.9350  141.1650 O.2   266  TYR266     -0.2867
     88  CB       -55.4680   79.9690  143.7690 C.3   266  TYR266      0.0534
     89  CG       -56.4840   78.8540  143.8550 C.ar  266  TYR266     -0.0201
     90  CD1      -56.0860   77.5310  143.7270 C.ar  266  TYR266     -0.0009
     91  CD2      -57.8280   79.1090  144.1010 C.ar  266  TYR266     -0.0009
     92  CE1      -56.9990   76.4930  143.8140 C.ar  266  TYR266      0.0417
     93  CE2      -58.7510   78.0800  144.1850 C.ar  266  TYR266      0.0417
     94  CZ       -58.3320   76.7700  144.0480 C.ar  266  TYR266      0.1957
     95  OH       -59.2400   75.7290  144.1510 O.3   266  TYR266     -0.2866
     96  N        -57.4790   78.5400  139.3880 N.3   268  GLN268     -0.1245
     97  CA       -58.5350   77.6650  138.8720 C.3   268  GLN268      0.1566
     98  C        -59.9070   78.3020  138.6990 C.2   268  GLN268      0.2260
     99  O        -60.4530   78.8650  139.6330 O.2   268  GLN268     -0.2867
    100  CB       -58.6720   76.4320  139.7600 C.3   268  GLN268      0.0367
    101  CG       -57.3610   75.9320  140.3210 C.3   268  GLN268      0.0905
    102  CD       -56.5450   75.1050  139.3280 C.2   268  GLN268      0.2608
    103  OE1      -56.4750   73.8790  139.4400 O.2   268  GLN268     -0.2717
    104  NE2      -55.9100   75.7720  138.3690 N.am  268  GLN268     -0.0878
    105  N        -48.4000   73.5100  139.9740 N.3   315  PHE315     -0.1241
    106  CA       -48.5820   72.2370  140.6660 C.3   315  PHE315      0.1605
    107  C        -47.2570   71.5690  140.9390 C.2   315  PHE315      0.2264
    108  O        -46.3620   71.5830  140.1040 O.2   315  PHE315     -0.2867
    109  CB       -49.4580   71.2780  139.8590 C.3   315  PHE315      0.0534
    110  CG       -50.9010   71.6940  139.7620 C.ar  315  PHE315     -0.0203
    111  CD1      -51.4500   72.5810  140.6610 C.ar  315  PHE315     -0.0042
    112  CD2      -51.7150   71.1690  138.7780 C.ar  315  PHE315     -0.0042
    113  CE1      -52.7650   72.9480  140.5650 C.ar  315  PHE315     -0.0003
    114  CE2      -53.0350   71.5340  138.6870 C.ar  315  PHE315     -0.0003
    115  CZ       -53.5600   72.4160  139.5820 C.ar  315  PHE315     -0.0000
    116  N        -49.4480   66.8530  143.1400 N.3   319  LEU319     -0.1245
    117  CA       -50.6190   67.5200  142.5530 C.3   319  LEU319      0.1561
    118  C        -50.8170   67.2230  141.0660 C.2   319  LEU319      0.2260
    119  O        -51.9520   67.1660  140.5840 O.2   319  LEU319     -0.2867
    120  CB       -50.5480   69.0360  142.7470 C.3   319  LEU319      0.0270
    121  CG       -51.1690   69.5340  144.0410 C.3   319  LEU319      0.0019
    122  CD1      -51.7570   70.9050  143.8310 C.3   319  LEU319      0.0001
    123  CD2      -52.2260   68.5420  144.4920 C.3   319  LEU319      0.0001
    124  N        -52.9250   64.0960  140.2710 N.3   322  TYR322     -0.1227
    125  CA       -54.3510   64.1670  140.5050 C.3   322  TYR322      0.1736
    126  C        -54.9550   65.1950  139.5690 C.2   322  TYR322      0.2595
    127  O        -56.1650   65.2220  139.3550 O.2   322  TYR322     -0.2718
    128  CB       -54.6480   64.4870  141.9690 C.3   322  TYR322      0.0548
    129  CG       -54.3680   63.3340  142.9050 C.ar  322  TYR322     -0.0200
    130  CD1      -53.0730   63.0510  143.3350 C.ar  322  TYR322     -0.0009
    131  CD2      -55.4000   62.5240  143.3640 C.ar  322  TYR322     -0.0009
    132  CE1      -52.8110   61.9860  144.1920 C.ar  322  TYR322      0.0417
    133  CE2      -55.1530   61.4570  144.2320 C.ar  322  TYR322      0.0417
    134  CZ       -53.8540   61.1920  144.6380 C.ar  322  TYR322      0.1957
    135  OH       -53.6040   60.1400  145.4910 O.3   322  TYR322     -0.2866
    136  N        -54.1140   66.0500  139.0000 N.am  323  PHE323     -0.1976
    137  CA       -54.6130   67.1000  138.1190 C.3   323  PHE323      0.1639
    138  C        -53.6400   67.3040  136.9640 C.2   323  PHE323      0.2290
    139  O        -53.0810   68.3880  136.8200 O.2   323  PHE323     -0.2864
    140  CB       -54.7770   68.4370  138.8690 C.3   323  PHE323      0.0560
    141  CG       -55.6370   68.3640  140.1100 C.ar  323  PHE323     -0.0200
    142  CD1      -55.0780   68.0760  141.3500 C.ar  323  PHE323     -0.0042
    143  CD2      -56.9950   68.6180  140.0400 C.ar  323  PHE323     -0.0042
    144  CE1      -55.8590   67.9910  142.4730 C.ar  323  PHE323     -0.0003
    145  CE2      -57.7880   68.5460  141.1700 C.ar  323  PHE323     -0.0003
    146  CZ       -57.2160   68.2290  142.3870 C.ar  323  PHE323     -0.0000
    147  N        -65.1270   72.9870  142.6760 N.3   437  ASP437     -0.1239
    148  CA       -64.2840   71.8020  142.8470 C.3   437  ASP437      0.1674
    149  C        -63.7360   71.7490  144.2680 C.2   437  ASP437      0.2266
    150  O        -62.5320   71.6220  144.4550 O.2   437  ASP437     -0.2867
    151  CB       -63.1260   71.7640  141.8380 C.3   437  ASP437      0.1410
    152  CG       -62.6010   70.3530  141.6080 C.2   437  ASP437      0.3668
    153  OD1      -63.2480   69.4010  142.0870 O.co2 437  ASP437     -0.2456
    154  OD2      -61.5430   70.1890  140.9620 O.co2 437  ASP437     -0.2456
@<TRIPOS>BOND
     1   139   138    2
     2   138   137    1
     3   137   140    1
     4   137   136    1
     5   104   102   am
     6   114   112   ar
     7   114   115   ar
     8    98    97    1
     9    98    99    2
    10   112   110   ar
    11   140   141    1
    12    97    96    1
    13    97   100    1
    14   136   126   am
    15   102   103    2
    16   102   101    1
    17   127   126    2
    18   126   125    1
    19   115   113   ar
    20   100   101    1
    21   110   109    1
    22   110   111   ar
    23   109   106    1
    24   105   106    1
    25   143   141   ar
    26   143   145   ar
    27   108   107    2
    28   141   142   ar
    29   124   125    1
    30   125   128    1
    31   113   111   ar
    32   119   118    2
    33    81    83   ar
    34    81    79   ar
    35   106   107    1
    36    76    75    1
    37    76    77    2
    38    83    82   ar
    39   154   152   ar
    40    75    74    1
    41    75    78    1
    42   118   117    1
    43    87    86    2
    44   145   146   ar
    45   142   144   ar
    46    86    85    1
    47    79    78    1
    48    79    80   ar
    49   152   151    1
    50   152   153   ar
    51   151   148    1
    52    82    80   ar
    53   128   129    1
    54   146   144   ar
    55   117   120    1
    56   117   116    1
    57   147   148    1
    58   120   121    1
    59    85    84    1
    60    85    88    1
    61   148   149    1
    62   129   130   ar
    63   129   131   ar
    64   130   132   ar
    65   131   133   ar
    66    90    92   ar
    67    90    89   ar
    68    88    89    1
    69    92    94   ar
    70   122   121    1
    71    89    91   ar
    72   121   123    1
    73    94    95    1
    74    94    93   ar
    75    91    93   ar
    76   132   134   ar
    77   133   134   ar
    78   149   150    2
    79   134   135    1
    80    60    58    1
    81    44    43    1
    82     6     5    1
    83    59    58    1
    84    58    55    1
    85    45    43    1
    86    10    11    2
    87    10     9    1
    88    73    70    1
    89    43    40    1
    90    12     9    1
    91    12    13    1
    92    72    71    2
    93     5     7    1
    94     5     2    1
    95    55    56    1
    96    55    54    1
    97    17    16    1
    98     4     3    2
    99    42    41    2
   100    57    56    2
   101    14    13    1
   102    14    15    1
   103     3     2    1
   104     9     8    1
   105    71    70    1
   106    40    39    1
   107    40    41    1
   108    70    69    1
   109    54    48   am
   110    41    46   am
   111     2     1    1
   112    16    15    2
   113    16    18    1
   114    48    49    2
   115    48    47    1
   116    69    63   am
   117    46    47    1
   118    47    50    1
   119    63    64    2
   120    63    62    1
   121    61    62    1
   122    67    65    1
   123    50    51    1
   124    25    24    1
   125    62    65    1
   126    52    51    1
   127    22    21    2
   128    65    66    1
   129    30    29    2
   130    51    53    1
   131    36    34   ar
   132    36    37   ar
   133    24    26    1
   134    24    23    1
   135    34    32   ar
   136    29    28    1
   137    21    20    1
   138    21    27   am
   139    28    27    1
   140    28    31    1
   141    66    68    1
   142    38    37    1
   143    20    23    1
   144    20    19    1
   145    37    35   ar
   146    32    31    1
   147    32    33   ar
   148    35    33   ar
