@<TRIPOS>MOLECULE
tmp/2f3pA01.pdb
 170 162 0 0 0
SMALL
GASTEIGER

@<TRIPOS>ATOM
      1  N         29.2500   25.4140   35.7900 N.3   122  ASN122     -0.1225
      2  CA        29.2260   26.6310   34.9860 C.3   122  ASN122      0.1785
      3  C         28.5060   26.4440   33.6620 C.2   122  ASN122      0.2598
      4  O         27.7670   27.3180   33.2080 O.2   122  ASN122     -0.2718
      5  CB        30.6540   27.0800   34.7030 C.3   122  ASN122      0.1169
      6  CG        31.2460   27.8540   35.8470 C.2   122  ASN122      0.2627
      7  OD1       30.8670   29.0000   36.0890 O.2   122  ASN122     -0.2716
      8  ND2       32.1710   27.2340   36.5710 N.am  122  ASN122     -0.0877
      9  N         28.7390   25.3000   33.0370 N.am  123  GLY123     -0.1942
     10  CA        28.1080   25.0410   31.7630 C.3   123  GLY123      0.2014
     11  C         28.3320   23.6450   31.2340 C.2   123  GLY123      0.2639
     12  O         28.0610   22.6610   31.9210 O.2   123  GLY123     -0.2714
     13  N         28.8460   23.5700   30.0090 N.am  124  GLY124     -0.1939
     14  CA        29.0750   22.2970   29.3470 C.3   124  GLY124      0.2014
     15  C         29.8260   21.2200   30.1050 C.2   124  GLY124      0.2638
     16  O         29.4170   20.0610   30.1410 O.2   124  GLY124     -0.2714
     17  N         30.9420   21.6030   30.7050 N.am  125  LEU125     -0.1977
     18  CA        31.7630   20.6700   31.4550 C.3   125  LEU125      0.1596
     19  C         31.0160   20.0800   32.6550 C.2   125  LEU125      0.2287
     20  O         31.0330   18.8670   32.8750 O.2   125  LEU125     -0.2864
     21  CB        33.0420   21.3820   31.9050 C.3   125  LEU125      0.0297
     22  CG        33.9910   20.6010   32.8070 C.3   125  LEU125      0.0022
     23  CD1       35.4420   20.9690   32.4700 C.3   125  LEU125      0.0001
     24  CD2       33.6630   20.9110   34.2580 C.3   125  LEU125      0.0001
     25  N         28.0390   17.9000   31.4890 N.3   128  LEU128     -0.1245
     26  CA        28.5040   16.6300   30.9390 C.3   128  LEU128      0.1561
     27  C         28.6500   15.6150   32.0630 C.2   128  LEU128      0.2260
     28  O         28.2590   14.4570   31.9270 O.2   128  LEU128     -0.2867
     29  CB        29.8480   16.7970   30.2220 C.3   128  LEU128      0.0270
     30  CG        30.2930   15.5230   29.4820 C.3   128  LEU128      0.0019
     31  CD1       29.4270   15.3120   28.2440 C.3   128  LEU128      0.0001
     32  CD2       31.7500   15.6360   29.0790 C.3   128  LEU128      0.0001
     33  N         33.8290   30.7050   36.3980 N.3   265  ASN265     -0.1225
     34  CA        34.4870   30.8400   35.1060 C.3   265  ASN265      0.1785
     35  C         34.2170   29.6760   34.1620 C.2   265  ASN265      0.2597
     36  O         34.2230   28.5120   34.5670 O.2   265  ASN265     -0.2718
     37  CB        35.9950   30.9930   35.2990 C.3   265  ASN265      0.1169
     38  CG        36.3490   32.2140   36.1190 C.2   265  ASN265      0.2627
     39  OD1       35.9640   33.3330   35.7810 O.2   265  ASN265     -0.2716
     40  ND2       37.0830   32.0070   37.2050 N.am  265  ASN265     -0.0877
     41  N         33.9640   30.0050   32.9030 N.am  266  ASP266     -0.1960
     42  CA        33.7220   29.0010   31.8780 C.3   266  ASP266      0.1840
     43  C         34.8910   29.1490   30.9080 C.2   266  ASP266      0.2622
     44  O         35.1440   30.2360   30.3980 O.2   266  ASP266     -0.2715
     45  CB        32.4010   29.2780   31.1440 C.3   266  ASP266      0.1450
     46  CG        31.9810   28.1250   30.2240 C.2   266  ASP266      0.3671
     47  OD1       31.3410   27.1600   30.7100 O.co2 266  ASP266     -0.2456
     48  OD2       32.2980   28.1830   29.0110 O.co2 266  ASP266     -0.2456
     49  N         35.6230   28.0690   30.6700 N.am  267  ASN267     -0.1972
     50  CA        36.7470   28.1280   29.7460 C.3   267  ASN267      0.1688
     51  C         37.7200   29.2650   30.0460 C.2   267  ASN267      0.2292
     52  O         38.1380   29.9880   29.1430 O.2   267  ASN267     -0.2864
     53  CB        36.2280   28.2710   28.3130 C.3   267  ASN267      0.1181
     54  CG        36.0150   26.9370   27.6420 C.2   267  ASN267      0.2629
     55  OD1       36.9640   26.3060   27.1790 O.2   267  ASN267     -0.2716
     56  ND2       34.7690   26.4870   27.6050 N.am  267  ASN267     -0.0877
     57  N         38.9260   17.0650   33.0640 N.3   313  ASP313     -0.1239
     58  CA        39.8590   18.1390   32.7550 C.3   313  ASP313      0.1674
     59  C         41.0010   18.0630   33.7630 C.2   313  ASP313      0.2266
     60  O         41.1600   17.0530   34.4340 O.2   313  ASP313     -0.2867
     61  CB        39.2110   19.5200   32.8000 C.3   313  ASP313      0.1410
     62  CG        39.8680   20.4800   31.8220 C.2   313  ASP313      0.3668
     63  OD1       39.6010   20.3740   30.6010 O.co2 313  ASP313     -0.2456
     64  OD2       40.6790   21.3190   32.2690 O.co2 313  ASP313     -0.2456
     65  N         41.3600   20.0030   36.4300 N.3   315  HIS315     -0.1241
     66  CA        40.9720   20.4870   37.7520 C.3   315  HIS315      0.1621
     67  C         41.3540   19.5160   38.8760 C.2   315  HIS315      0.2264
     68  O         41.7940   19.9450   39.9380 O.2   315  HIS315     -0.2867
     69  CB        39.4750   20.8140   37.7530 C.3   315  HIS315      0.0745
     70  CG        39.0700   21.7210   36.6260 C.ar  315  HIS315      0.0817
     71  ND1       37.7600   21.8780   36.2260 N.ar  315  HIS315     -0.2268
     72  CD2       39.8070   22.5190   35.8180 C.ar  315  HIS315      0.1154
     73  CE1       37.7090   22.7340   35.2200 C.ar  315  HIS315      0.1986
     74  NE2       38.9370   23.1390   34.9530 N.ar  315  HIS315     -0.2212
     75  N         38.9430   19.2250   27.6900 N.3   351  HIS351     -0.1226
     76  CA        37.7170   19.8600   27.2250 C.3   351  HIS351      0.1752
     77  C         37.9320   21.1830   26.5050 C.2   351  HIS351      0.2596
     78  O         36.9620   21.8560   26.1810 O.2   351  HIS351     -0.2718
     79  CB        36.7750   20.1120   28.4110 C.3   351  HIS351      0.0759
     80  CG        36.3690   18.8750   29.1490 C.ar  351  HIS351      0.0818
     81  ND1       35.2540   18.1380   28.8140 N.ar  351  HIS351     -0.2268
     82  CD2       36.9350   18.2410   30.2060 C.ar  351  HIS351      0.1154
     83  CE1       35.1480   17.1050   29.6310 C.ar  351  HIS351      0.1986
     84  NE2       36.1570   17.1450   30.4850 N.ar  351  HIS351     -0.2212
     85  N         39.1780   21.5690   26.2510 N.am  352  THR352     -0.1953
     86  CA        39.4120   22.8440   25.5810 C.3   352  THR352      0.1897
     87  C         40.8270   22.9990   25.0450 C.2   352  THR352      0.2313
     88  O         41.7490   22.3470   25.5270 O.2   352  THR352     -0.2863
     89  CB        39.1460   24.0150   26.5480 C.3   352  THR352      0.1794
     90  OG1       39.1940   25.2560   25.8300 O.3   352  THR352     -0.2208
     91  CG2       40.2000   24.0250   27.6590 C.3   352  THR352      0.0378
     92  N         42.4210   28.9960   29.0600 N.3   357  ALA357     -0.1245
     93  CA        41.6860   28.0530   29.9060 C.3   357  ALA357      0.1562
     94  C         42.5750   26.9880   30.5410 C.2   357  ALA357      0.2260
     95  O         42.1800   26.3280   31.5020 O.2   357  ALA357     -0.2867
     96  CB        40.5680   27.3880   29.0990 C.3   357  ALA357      0.0290
     97  N         36.8910   15.4930   23.2460 N.3   429  VAL429     -0.1245
     98  CA        35.4550   15.2730   23.3660 C.3   429  VAL429      0.1561
     99  C         34.6110   15.3360   22.0980 C.2   429  VAL429      0.2260
    100  O         33.3820   15.3520   22.1590 O.2   429  VAL429     -0.2867
    101  CB        34.8920   16.2250   24.4400 C.3   429  VAL429      0.0252
    102  CG1       35.4470   15.8160   25.8110 C.3   429  VAL429      0.0019
    103  CG2       35.2980   17.6640   24.1290 C.3   429  VAL429      0.0019
    104  N         31.2260   13.5940   22.9230 N.3   458  ASN458     -0.1240
    105  CA        30.2420   13.8760   23.9600 C.3   458  ASN458      0.1653
    106  C         28.8410   13.4220   23.5840 C.2   458  ASN458      0.2266
    107  O         28.5550   13.0750   22.4350 O.2   458  ASN458     -0.2867
    108  CB        30.2090   15.3830   24.2610 C.3   458  ASN458      0.1155
    109  CG        31.3720   15.8350   25.1420 C.2   458  ASN458      0.2627
    110  OD1       31.6200   17.0400   25.3100 O.2   458  ASN458     -0.2716
    111  ND2       32.0810   14.8740   25.7140 N.am  458  ASN458     -0.0877
    112  N         34.4850   33.4860   22.0020 N.3   547  TYR547     -0.1227
    113  CA        34.6450   32.4160   21.0280 C.3   547  TYR547      0.1736
    114  C         33.3140   31.8250   20.5510 C.2   547  TYR547      0.2595
    115  O         33.2300   31.3310   19.4260 O.2   547  TYR547     -0.2718
    116  CB        35.5920   31.3260   21.5750 C.3   547  TYR547      0.0548
    117  CG        34.9640   30.2090   22.3790 C.ar  547  TYR547     -0.0200
    118  CD1       34.3790   29.1110   21.7450 C.ar  547  TYR547     -0.0009
    119  CD2       35.0010   30.2200   23.7750 C.ar  547  TYR547     -0.0009
    120  CE1       33.8540   28.0530   22.4800 C.ar  547  TYR547      0.0417
    121  CE2       34.4750   29.1680   24.5190 C.ar  547  TYR547      0.0417
    122  CZ        33.9070   28.0900   23.8680 C.ar  547  TYR547      0.1957
    123  OH        33.3960   27.0360   24.5930 O.3   547  TYR547     -0.2866
    124  N         32.2780   31.8930   21.3850 N.am  548  LYS548     -0.1980
    125  CA        30.9620   31.3620   21.0170 C.3   548  LYS548      0.1596
    126  C         30.2720   32.3200   20.0410 C.2   548  LYS548      0.2287
    127  O         29.2660   31.9880   19.4070 O.2   548  LYS548     -0.2864
    128  CB        30.1080   31.1460   22.2730 C.3   548  LYS548      0.0298
    129  CG        30.6320   30.0020   23.1630 C.3   548  LYS548      0.0038
    130  CD        29.8850   29.8950   24.4900 C.3   548  LYS548      0.0206
    131  CE        30.4430   28.7640   25.3650 C.3   548  LYS548      0.1093
    132  NZ        30.1900   27.4200   24.7520 N.3   548  LYS548     -0.1314
    133  N         37.3740   26.2200   18.0160 N.3   645  THR645     -0.1203
    134  CA        37.3320   26.7160   19.3880 C.3   645  THR645      0.1994
    135  C         36.3960   25.9690   20.3360 C.2   645  THR645      0.2618
    136  O         36.7180   25.8040   21.5070 O.2   645  THR645     -0.2717
    137  CB        36.9780   28.2140   19.4080 C.3   645  THR645      0.1784
    138  OG1       35.6860   28.4100   18.8250 O.3   645  THR645     -0.2211
    139  CG2       38.0100   29.0060   18.6030 C.3   645  THR645      0.0376
    140  N         35.2400   25.5260   19.8430 N.am  646  GLU646     -0.1965
    141  CA        34.2960   24.7890   20.6890 C.3   646  GLU646      0.1733
    142  C         34.7170   23.3230   20.6280 C.2   646  GLU646      0.2616
    143  O         34.5070   22.6670   19.6110 O.2   646  GLU646     -0.2715
    144  CB        32.8680   24.9510   20.1530 C.3   646  GLU646      0.0429
    145  CG        31.7580   24.4950   21.1040 C.3   646  GLU646      0.1163
    146  CD        31.6370   25.3770   22.3300 C.2   646  GLU646      0.3649
    147  OE1       32.3360   25.1170   23.3300 O.co2 646  GLU646     -0.2457
    148  OE2       30.8470   26.3460   22.2880 O.co2 646  GLU646     -0.2457
    149  N         35.3180   22.8170   21.7050 N.am  647  ALA647     -0.1963
    150  CA        35.7890   21.4330   21.7350 C.3   647  ALA647      0.1728
    151  C         34.7330   20.4640   21.2140 C.2   647  ALA647      0.2617
    152  O         35.0090   19.6190   20.3580 O.2   647  ALA647     -0.2715
    153  CB        36.2040   21.0480   23.1550 C.3   647  ALA647      0.0334
    154  N         33.5170   20.5920   21.7270 N.am  648  SER648     -0.1936
    155  CA        32.4400   19.7220   21.2960 C.3   648  SER648      0.2055
    156  C         31.1280   20.4610   21.2380 C.2   648  SER648      0.2644
    157  O         30.5320   20.6230   20.1730 O.2   648  SER648     -0.2714
    158  CB        32.2950   18.5380   22.2600 C.3   648  SER648      0.2130
    159  OG        31.1420   17.7650   21.9510 O.3   648  SER648     -0.2179
    160  N         30.6980   20.9190   22.4060 N.am  649  GLY649     -0.1939
    161  CA        29.4250   21.5850   22.5330 C.3   649  GLY649      0.2014
    162  C         28.4800   20.4520   22.8890 C.2   649  GLY649      0.2639
    163  O         28.7250   19.3100   22.4930 O.2   649  GLY649     -0.2714
    164  N         27.4390   20.7320   23.6640 N.am  650  THR650     -0.1950
    165  CA        26.4660   19.7000   24.0140 C.3   650  THR650      0.1897
    166  C         25.0670   20.2730   23.8520 C.2   650  THR650      0.2313
    167  O         24.1040   19.5370   23.6090 O.2   650  THR650     -0.2863
    168  CB        26.6590   19.1650   25.4550 C.3   650  THR650      0.1794
    169  OG1       26.7120   20.2540   26.3770 O.3   650  THR650     -0.2208
    170  CG2       27.9390   18.3460   25.5470 C.3   650  THR650      0.0378
@<TRIPOS>BOND
     1   133   134    1
     2   139   137    1
     3   138   137    1
     4   134   137    1
     5   134   135    1
     6   127   126    2
     7   115   114    2
     8   143   142    2
     9   140   135   am
    10   140   141    1
    11   126   125    1
    12   144   141    1
    13   144   145    1
    14   157   156    2
    15   135   136    2
    16   152   151    2
    17   114   113    1
    18   114   124   am
    19   142   141    1
    20   142   149   am
    21   125   124    1
    22   125   128    1
    23   113   116    1
    24   113   112    1
    25   145   146    1
    26   151   154   am
    27   151   150    1
    28   156   155    1
    29   156   160   am
    30   155   154    1
    31   155   158    1
    32   116   117    1
    33   149   150    1
    34   150   153    1
    35   118   117   ar
    36   118   120   ar
    37   159   158    1
    38    99   100    2
    39    99    98    1
    40   128   129    1
    41   148   146   ar
    42   146   147   ar
    43   117   119   ar
    44   160   161    1
    45   107   106    2
    46   120   122   ar
    47   163   162    2
    48   161   162    1
    49   162   164   am
    50   104   105    1
    51   129   130    1
    52    97    98    1
    53    98   101    1
    54   106   105    1
    55   167   166    2
    56   164   165    1
    57   119   121   ar
    58   166   165    1
    59   122   121   ar
    60   122   123    1
    61   105   108    1
    62   165   168    1
    63   103   101    1
    64   108   109    1
    65   101   102    1
    66   130   131    1
    67   132   131    1
    68    87    88    2
    69    87    86    1
    70   109   110    2
    71   109   111   am
    72   168   170    1
    73   168   169    1
    74    86    85    1
    75    86    89    1
    76    90    89    1
    77    78    77    2
    78    85    77   am
    79    77    76    1
    80    89    91    1
    81    55    54    2
    82    76    75    1
    83    76    79    1
    84    56    54   am
    85    54    53    1
    86    31    30    1
    87    53    50    1
    88    79    80    1
    89    81    80   ar
    90    81    83   ar
    91    48    46   ar
    92    92    93    1
    93    32    30    1
    94    96    93    1
    95    52    51    2
    96    80    82   ar
    97    14    13    1
    98    14    15    1
    99    30    29    1
   100    83    84   ar
   101    50    51    1
   102    50    49    1
   103    93    94    1
   104    13    11   am
   105    15    16    2
   106    15    17   am
   107    82    84   ar
   108    29    26    1
   109    46    47   ar
   110    46    45    1
   111    44    43    2
   112    94    95    2
   113    63    62   ar
   114    49    43   am
   115    17    18    1
   116    43    42    1
   117    26    25    1
   118    26    27    1
   119    45    42    1
   120    11    10    1
   121    11    12    2
   122    18    21    1
   123    18    19    1
   124    10     9    1
   125    62    64   ar
   126    62    61    1
   127    42    41    1
   128    21    22    1
   129    28    27    2
   130    23    22    1
   131    19    20    2
   132    58    61    1
   133    58    57    1
   134    58    59    1
   135    22    24    1
   136    41    35   am
   137     9     3   am
   138     4     3    2
   139     3     2    1
   140    59    60    2
   141    35    36    2
   142    35    34    1
   143     5     2    1
   144     5     6    1
   145    74    73   ar
   146    74    72   ar
   147     2     1    1
   148    34    37    1
   149    34    33    1
   150    73    71   ar
   151    37    38    1
   152    39    38    2
   153    72    70   ar
   154     6     7    2
   155     6     8   am
   156    38    40   am
   157    71    70   ar
   158    65    66    1
   159    70    69    1
   160    66    69    1
   161    66    67    1
   162    67    68    2
