@<TRIPOS>MOLECULE
tmp/2f3qA01.pdb
 173 166 0 0 0
SMALL
GASTEIGER

@<TRIPOS>ATOM
      1  N         28.9400   25.3800   33.1120 N.3   123  GLY123     -0.1210
      2  CA        28.3250   25.1430   31.8240 C.3   123  GLY123      0.1956
      3  C         28.5270   23.7360   31.3100 C.2   123  GLY123      0.2612
      4  O         28.2260   22.7670   32.0100 O.2   123  GLY123     -0.2717
      5  N         29.0510   23.6340   30.0920 N.am  124  GLY124     -0.1942
      6  CA        29.2610   22.3440   29.4520 C.3   124  GLY124      0.2014
      7  C         30.0160   21.2750   30.2160 C.2   124  GLY124      0.2638
      8  O         29.5940   20.1170   30.2660 O.2   124  GLY124     -0.2714
      9  N         31.1470   21.6510   30.7990 N.am  125  LEU125     -0.1977
     10  CA        31.9580   20.7030   31.5450 C.3   125  LEU125      0.1596
     11  C         31.1920   20.1400   32.7460 C.2   125  LEU125      0.2287
     12  O         31.1920   18.9300   32.9800 O.2   125  LEU125     -0.2864
     13  CB        33.2670   21.3780   31.9770 C.3   125  LEU125      0.0297
     14  CG        34.2400   20.5610   32.8260 C.3   125  LEU125      0.0022
     15  CD1       35.6650   21.0920   32.6580 C.3   125  LEU125      0.0001
     16  CD2       33.8030   20.6330   34.2780 C.3   125  LEU125      0.0001
     17  N         28.1900   17.9270   31.6140 N.3   128  LEU128     -0.1245
     18  CA        28.6240   16.6470   31.0530 C.3   128  LEU128      0.1561
     19  C         28.7940   15.6450   32.1960 C.2   128  LEU128      0.2260
     20  O         28.4340   14.4790   32.0720 O.2   128  LEU128     -0.2867
     21  CB        29.9520   16.7950   30.3000 C.3   128  LEU128      0.0270
     22  CG        30.4130   15.5160   29.5800 C.3   128  LEU128      0.0019
     23  CD1       29.5680   15.3080   28.3250 C.3   128  LEU128      0.0001
     24  CD2       31.8870   15.6170   29.2060 C.3   128  LEU128      0.0001
     25  N         33.9270   30.8270   36.4870 N.3   265  ASN265     -0.1225
     26  CA        34.5610   31.0070   35.1840 C.3   265  ASN265      0.1785
     27  C         34.2970   29.8670   34.2080 C.2   265  ASN265      0.2597
     28  O         34.3320   28.6950   34.5790 O.2   265  ASN265     -0.2718
     29  CB        36.0720   31.1690   35.3520 C.3   265  ASN265      0.1169
     30  CG        36.4310   32.3520   36.2170 C.2   265  ASN265      0.2627
     31  OD1       36.0430   33.4830   35.9260 O.2   265  ASN265     -0.2716
     32  ND2       37.1690   32.1000   37.2910 N.am  265  ASN265     -0.0877
     33  N         34.0300   30.2240   32.9580 N.am  266  ASP266     -0.1960
     34  CA        33.8010   29.2360   31.9130 C.3   266  ASP266      0.1840
     35  C         34.9930   29.3760   30.9710 C.2   266  ASP266      0.2622
     36  O         35.2590   30.4630   30.4610 O.2   266  ASP266     -0.2715
     37  CB        32.4990   29.5340   31.1520 C.3   266  ASP266      0.1450
     38  CG        32.1080   28.4130   30.1860 C.2   266  ASP266      0.3671
     39  OD1       31.5950   27.3640   30.6500 O.co2 266  ASP266     -0.2456
     40  OD2       32.3150   28.5780   28.9610 O.co2 266  ASP266     -0.2456
     41  N         35.7260   28.2880   30.7620 N.am  267  ASN267     -0.1958
     42  CA        36.8810   28.3130   29.8720 C.3   267  ASN267      0.1819
     43  C         37.8510   29.4500   30.1760 C.2   267  ASN267      0.2621
     44  O         38.2370   30.1980   29.2790 O.2   267  ASN267     -0.2715
     45  CB        36.4120   28.4130   28.4180 C.3   267  ASN267      0.1195
     46  CG        36.0230   27.0700   27.8410 C.2   267  ASN267      0.2630
     47  OD1       36.8830   26.2760   27.4560 O.2   267  ASN267     -0.2716
     48  ND2       34.7250   26.7970   27.7970 N.am  267  ASN267     -0.0877
     49  N         38.2400   29.5780   31.4420 N.am  268  PHE268     -0.1974
     50  CA        39.1800   30.6190   31.8490 C.3   268  PHE268      0.1639
     51  C         39.8640   30.2220   33.1520 C.2   268  PHE268      0.2290
     52  O         39.1980   29.8740   34.1260 O.2   268  PHE268     -0.2864
     53  CB        38.4610   31.9560   32.0420 C.3   268  PHE268      0.0560
     54  CG        39.3890   33.1000   32.3440 C.ar  268  PHE268     -0.0200
     55  CD1       40.1910   33.6430   31.3470 C.ar  268  PHE268     -0.0042
     56  CD2       39.4800   33.6170   33.6320 C.ar  268  PHE268     -0.0042
     57  CE1       41.0750   34.6870   31.6260 C.ar  268  PHE268     -0.0003
     58  CE2       40.3600   34.6620   33.9250 C.ar  268  PHE268     -0.0003
     59  CZ        41.1590   35.1980   32.9200 C.ar  268  PHE268     -0.0000
     60  N         39.0790   17.0840   33.1580 N.3   313  ASP313     -0.1239
     61  CA        40.0220   18.1500   32.8420 C.3   313  ASP313      0.1674
     62  C         41.1580   18.0860   33.8590 C.2   313  ASP313      0.2266
     63  O         41.3210   17.0690   34.5240 O.2   313  ASP313     -0.2867
     64  CB        39.3890   19.5410   32.8500 C.3   313  ASP313      0.1410
     65  CG        40.1130   20.4920   31.9050 C.2   313  ASP313      0.3668
     66  OD1       39.9460   20.3570   30.6710 O.co2 313  ASP313     -0.2456
     67  OD2       40.8770   21.3530   32.3840 O.co2 313  ASP313     -0.2456
     68  N         41.4960   20.0240   36.5680 N.3   315  HIS315     -0.1241
     69  CA        41.1200   20.5130   37.8890 C.3   315  HIS315      0.1621
     70  C         41.5000   19.5480   39.0200 C.2   315  HIS315      0.2264
     71  O         41.9040   19.9820   40.0970 O.2   315  HIS315     -0.2867
     72  CB        39.6270   20.8430   37.9050 C.3   315  HIS315      0.0745
     73  CG        39.2130   21.7680   36.8010 C.ar  315  HIS315      0.0817
     74  ND1       37.9000   21.9420   36.4260 N.ar  315  HIS315     -0.2268
     75  CD2       39.9450   22.5620   35.9820 C.ar  315  HIS315      0.1154
     76  CE1       37.8390   22.8000   35.4230 C.ar  315  HIS315      0.1986
     77  NE2       39.0660   23.1920   35.1340 N.ar  315  HIS315     -0.2212
     78  N         39.1610   19.3040   27.8060 N.3   351  HIS351     -0.1226
     79  CA        37.9320   19.9590   27.3630 C.3   351  HIS351      0.1752
     80  C         38.1180   21.2950   26.6420 C.2   351  HIS351      0.2596
     81  O         37.1380   21.9900   26.3930 O.2   351  HIS351     -0.2718
     82  CB        36.9990   20.1910   28.5630 C.3   351  HIS351      0.0759
     83  CG        36.5590   18.9360   29.2550 C.ar  351  HIS351      0.0818
     84  ND1       35.4280   18.2380   28.8890 N.ar  351  HIS351     -0.2268
     85  CD2       37.0950   18.2610   30.3010 C.ar  351  HIS351      0.1154
     86  CE1       35.2840   17.1900   29.6790 C.ar  351  HIS351      0.1986
     87  NE2       36.2820   17.1800   30.5450 N.ar  351  HIS351     -0.2212
     88  N         39.3520   21.6710   26.3140 N.am  352  THR352     -0.1953
     89  CA        39.5620   22.9420   25.6180 C.3   352  THR352      0.1897
     90  C         40.9750   23.1020   25.0820 C.2   352  THR352      0.2313
     91  O         41.8930   22.4160   25.5240 O.2   352  THR352     -0.2863
     92  CB        39.2560   24.1540   26.5470 C.3   352  THR352      0.1794
     93  OG1       39.3700   25.3780   25.8040 O.3   352  THR352     -0.2208
     94  CG2       40.2270   24.1890   27.7140 C.3   352  THR352      0.0378
     95  N         42.5390   29.0930   29.1540 N.3   357  ALA357     -0.1245
     96  CA        41.7850   28.1530   29.9820 C.3   357  ALA357      0.1562
     97  C         42.6580   27.0580   30.5960 C.2   357  ALA357      0.2260
     98  O         42.2200   26.3390   31.4950 O.2   357  ALA357     -0.2867
     99  CB        40.6640   27.5230   29.1630 C.3   357  ALA357      0.0290
    100  N         37.0850   15.5290   23.3010 N.3   429  VAL429     -0.1245
    101  CA        35.6450   15.3070   23.4230 C.3   429  VAL429      0.1561
    102  C         34.7970   15.3740   22.1570 C.2   429  VAL429      0.2260
    103  O         33.5670   15.4220   22.2240 O.2   429  VAL429     -0.2867
    104  CB        35.0790   16.2630   24.4870 C.3   429  VAL429      0.0252
    105  CG1       35.6170   15.8610   25.8700 C.3   429  VAL429      0.0019
    106  CG2       35.4980   17.6970   24.1690 C.3   429  VAL429      0.0019
    107  N         31.3730   13.6540   22.9800 N.3   458  ASN458     -0.1240
    108  CA        30.3910   13.9250   24.0270 C.3   458  ASN458      0.1653
    109  C         28.9850   13.4650   23.6550 C.2   458  ASN458      0.2266
    110  O         28.7110   13.0810   22.5160 O.2   458  ASN458     -0.2867
    111  CB        30.3550   15.4310   24.3450 C.3   458  ASN458      0.1155
    112  CG        31.5220   15.8840   25.2310 C.2   458  ASN458      0.2627
    113  OD1       31.7520   17.0890   25.4140 O.2   458  ASN458     -0.2716
    114  ND2       32.2470   14.9270   25.7890 N.am  458  ASN458     -0.0877
    115  N         34.6660   33.6070   22.0990 N.3   547  TYR547     -0.1227
    116  CA        34.8180   32.5350   21.1190 C.3   547  TYR547      0.1736
    117  C         33.4910   31.9430   20.6460 C.2   547  TYR547      0.2595
    118  O         33.4160   31.4000   19.5430 O.2   547  TYR547     -0.2718
    119  CB        35.7610   31.4380   21.6530 C.3   547  TYR547      0.0548
    120  CG        35.1270   30.3230   22.4590 C.ar  547  TYR547     -0.0200
    121  CD1       34.5280   29.2300   21.8270 C.ar  547  TYR547     -0.0009
    122  CD2       35.1660   30.3360   23.8530 C.ar  547  TYR547     -0.0009
    123  CE1       33.9930   28.1790   22.5620 C.ar  547  TYR547      0.0417
    124  CE2       34.6290   29.2900   24.6000 C.ar  547  TYR547      0.0417
    125  CZ        34.0470   28.2160   23.9510 C.ar  547  TYR547      0.1957
    126  OH        33.5160   27.1810   24.6840 O.3   547  TYR547     -0.2866
    127  N         32.4450   32.0600   21.4610 N.am  548  LYS548     -0.1980
    128  CA        31.1300   31.5340   21.0890 C.3   548  LYS548      0.1596
    129  C         30.4320   32.4840   20.1130 C.2   548  LYS548      0.2287
    130  O         29.4280   32.1340   19.4900 O.2   548  LYS548     -0.2864
    131  CB        30.2770   31.3090   22.3420 C.3   548  LYS548      0.0298
    132  CG        30.7980   30.1540   23.2120 C.3   548  LYS548      0.0038
    133  CD        30.1120   30.0930   24.5690 C.3   548  LYS548      0.0206
    134  CE        30.6570   28.9460   25.4270 C.3   548  LYS548      0.1093
    135  NZ        30.3050   27.6080   24.8440 N.3   548  LYS548     -0.1314
    136  N         37.5290   26.2850   18.0570 N.3   645  THR645     -0.1203
    137  CA        37.4980   26.7760   19.4330 C.3   645  THR645      0.1994
    138  C         36.5480   26.0450   20.3830 C.2   645  THR645      0.2618
    139  O         36.8470   25.9210   21.5700 O.2   645  THR645     -0.2717
    140  CB        37.1670   28.2790   19.4640 C.3   645  THR645      0.1784
    141  OG1       35.8630   28.4920   18.9150 O.3   645  THR645     -0.2211
    142  CG2       38.1870   29.0640   18.6390 C.3   645  THR645      0.0376
    143  N         35.4060   25.5750   19.8790 N.am  646  GLU646     -0.1965
    144  CA        34.4550   24.8480   20.7270 C.3   646  GLU646      0.1733
    145  C         34.8660   23.3740   20.6840 C.2   646  GLU646      0.2616
    146  O         34.6250   22.6880   19.6930 O.2   646  GLU646     -0.2715
    147  CB        33.0210   25.0230   20.2010 C.3   646  GLU646      0.0429
    148  CG        31.9090   24.5630   21.1600 C.3   646  GLU646      0.1163
    149  CD        31.7760   25.4480   22.3940 C.2   646  GLU646      0.3649
    150  OE1       32.4620   25.1840   23.4050 O.co2 646  GLU646     -0.2457
    151  OE2       30.9930   26.4240   22.3500 O.co2 646  GLU646     -0.2457
    152  N         35.4990   22.8960   21.7560 N.am  647  ALA647     -0.1963
    153  CA        35.9710   21.5110   21.8150 C.3   647  ALA647      0.1728
    154  C         34.9210   20.5330   21.3020 C.2   647  ALA647      0.2617
    155  O         35.2070   19.6830   20.4550 O.2   647  ALA647     -0.2715
    156  CB        36.3730   21.1470   23.2400 C.3   647  ALA647      0.0334
    157  N         33.7040   20.6540   21.8190 N.am  648  SER648     -0.1936
    158  CA        32.6300   19.7780   21.3880 C.3   648  SER648      0.2055
    159  C         31.3120   20.5100   21.3140 C.2   648  SER648      0.2644
    160  O         30.7310   20.6730   20.2360 O.2   648  SER648     -0.2714
    161  CB        32.4790   18.5980   22.3530 C.3   648  SER648      0.2130
    162  OG        31.3330   17.8230   22.0320 O.3   648  SER648     -0.2179
    163  N         30.8640   20.9670   22.4800 N.am  649  GLY649     -0.1939
    164  CA        29.5820   21.6250   22.5960 C.3   649  GLY649      0.2014
    165  C         28.6250   20.4990   22.9490 C.2   649  GLY649      0.2639
    166  O         28.8440   19.3590   22.5290 O.2   649  GLY649     -0.2714
    167  N         27.6020   20.7800   23.7480 N.am  650  THR650     -0.1950
    168  CA        26.6130   19.7570   24.0970 C.3   650  THR650      0.1897
    169  C         25.2110   20.3370   23.9450 C.2   650  THR650      0.2313
    170  O         24.2390   19.6050   23.7180 O.2   650  THR650     -0.2863
    171  CB        26.8020   19.2170   25.5300 C.3   650  THR650      0.1794
    172  OG1       26.8490   20.3060   26.4550 O.3   650  THR650     -0.2208
    173  CG2       28.0820   18.3980   25.6190 C.3   650  THR650      0.0378
@<TRIPOS>BOND
     1   136   137    1
     2   142   140    1
     3   141   140    1
     4   137   140    1
     5   137   138    1
     6   130   129    2
     7   118   117    2
     8   146   145    2
     9   143   138   am
    10   143   144    1
    11   129   128    1
    12   147   144    1
    13   147   148    1
    14   160   159    2
    15   138   139    2
    16   155   154    2
    17   117   116    1
    18   117   127   am
    19   145   144    1
    20   145   152   am
    21   128   127    1
    22   128   131    1
    23   116   119    1
    24   116   115    1
    25   148   149    1
    26   154   153    1
    27   154   157   am
    28   159   158    1
    29   159   163   am
    30   158   157    1
    31   158   161    1
    32   119   120    1
    33   152   153    1
    34   153   156    1
    35   121   120   ar
    36   121   123   ar
    37   162   161    1
    38   102   103    2
    39   102   101    1
    40   131   132    1
    41   151   149   ar
    42   149   150   ar
    43   120   122   ar
    44   163   164    1
    45   110   109    2
    46   166   165    2
    47   123   125   ar
    48   164   165    1
    49   165   167   am
    50   107   108    1
    51   132   133    1
    52   100   101    1
    53   101   104    1
    54   109   108    1
    55   170   169    2
    56   167   168    1
    57   122   124   ar
    58   169   168    1
    59   125   124   ar
    60   125   126    1
    61   108   111    1
    62   168   171    1
    63   106   104    1
    64   111   112    1
    65   104   105    1
    66   133   134    1
    67   135   134    1
    68    90    91    2
    69    90    89    1
    70   112   113    2
    71   112   114   am
    72   171   173    1
    73   171   172    1
    74    89    88    1
    75    89    92    1
    76    93    92    1
    77    88    80   am
    78    81    80    2
    79    92    94    1
    80    80    79    1
    81    79    78    1
    82    79    82    1
    83    47    46    2
    84    48    46   am
    85    46    45    1
    86    23    22    1
    87    45    42    1
    88    82    83    1
    89    84    83   ar
    90    84    86   ar
    91    40    38   ar
    92    95    96    1
    93    99    96    1
    94    24    22    1
    95    83    85   ar
    96    44    43    2
    97     6     5    1
    98     6     7    1
    99    22    21    1
   100    86    87   ar
   101    42    43    1
   102    42    41    1
   103    96    97    1
   104     5     3   am
   105    43    49   am
   106    38    39   ar
   107    38    37    1
   108     7     8    2
   109     7     9   am
   110    21    18    1
   111    85    87   ar
   112    36    35    2
   113    97    98    2
   114    66    65   ar
   115    41    35   am
   116     9    10    1
   117    35    34    1
   118    18    17    1
   119    18    19    1
   120    37    34    1
   121     3     2    1
   122     3     4    2
   123    55    57   ar
   124    55    54   ar
   125    49    50    1
   126    10    13    1
   127    10    11    1
   128    57    59   ar
   129     2     1    1
   130    50    53    1
   131    50    51    1
   132    65    67   ar
   133    65    64    1
   134    34    33    1
   135    13    14    1
   136    53    54    1
   137    20    19    2
   138    54    56   ar
   139    15    14    1
   140    11    12    2
   141    14    16    1
   142    61    64    1
   143    61    60    1
   144    61    62    1
   145    59    58   ar
   146    33    27   am
   147    51    52    2
   148    56    58   ar
   149    62    63    2
   150    27    28    2
   151    27    26    1
   152    77    76   ar
   153    77    75   ar
   154    26    29    1
   155    26    25    1
   156    29    30    1
   157    76    74   ar
   158    31    30    2
   159    75    73   ar
   160    30    32   am
   161    74    73   ar
   162    68    69    1
   163    73    72    1
   164    69    72    1
   165    69    70    1
   166    70    71    2
