@<TRIPOS>MOLECULE
tmp/2f3tA00.pdb
 128 121 0 0 0
SMALL
GASTEIGER

@<TRIPOS>ATOM
      1  N         26.5720   -8.2200   -5.2940 N.3    37  SER37      -0.1217
      2  CA        25.5640   -8.3230   -6.3450 C.3    37  SER37       0.1889
      3  C         24.4830   -9.3830   -6.1020 C.2    37  SER37       0.2288
      4  O         24.6740  -10.3260   -5.3240 O.2    37  SER37      -0.2866
      5  CB        26.2490   -8.6040   -7.6910 C.3    37  SER37       0.2089
      6  OG        27.1400   -7.5560   -8.0670 O.3    37  SER37      -0.2183
      7  N         21.8090  -17.4910  -10.1140 N.3    41  ARG41      -0.1245
      8  CA        22.5130  -18.7590  -10.2280 C.3    41  ARG41       0.1563
      9  C         22.7310  -19.4360   -8.8840 C.2    41  ARG41       0.2260
     10  O         22.8050  -18.7890   -7.8360 O.2    41  ARG41      -0.2867
     11  CB        23.8600  -18.5780  -10.9410 C.3    41  ARG41       0.0307
     12  CG        24.9730  -17.9630  -10.0850 C.3    41  ARG41       0.0489
     13  CD        26.3180  -18.0830  -10.8050 C.3    41  ARG41       0.2205
     14  NE        27.4540  -17.5920  -10.0220 N.pl3  41  ARG41      -0.0865
     15  CZ        27.8370  -18.0940   -8.8510 C.cat  41  ARG41       0.5346
     16  NH1       27.1770  -19.1090   -8.3050 N.pl3  41  ARG41       0.1354
     17  NH2       28.8930  -17.5780   -8.2240 N.pl3  41  ARG41       0.1354
     18  N         27.8890  -21.8220   -5.5120 N.3    44  ARG44      -0.1245
     19  CA        28.8520  -22.9130   -5.6430 C.3    44  ARG44       0.1563
     20  C         29.3030  -23.3590   -4.2580 C.2    44  ARG44       0.2260
     21  O         28.9750  -22.7200   -3.2490 O.2    44  ARG44      -0.2867
     22  CB        30.0750  -22.4470   -6.4390 C.3    44  ARG44       0.0307
     23  CG        29.7700  -21.9040   -7.8230 C.3    44  ARG44       0.0489
     24  CD        30.9730  -21.1460   -8.3400 C.3    44  ARG44       0.2205
     25  NE        30.6940  -20.4630   -9.5950 N.pl3  44  ARG44      -0.0865
     26  CZ        31.5160  -19.5740  -10.1440 C.cat  44  ARG44       0.5346
     27  NH1       32.6640  -19.2680   -9.5440 N.pl3  44  ARG44       0.1354
     28  NH2       31.1910  -18.9980  -11.2940 N.pl3  44  ARG44       0.1354
     29  N         30.6080  -20.8340   -1.2260 N.3    47  GLU47      -0.1245
     30  CA        30.0090  -19.4960   -1.2520 C.3    47  GLU47       0.1567
     31  C         29.0300  -19.3420   -0.0890 C.2    47  GLU47       0.2260
     32  O         28.7310  -20.3050    0.6200 O.2    47  GLU47      -0.2867
     33  CB        29.2730  -19.2480   -2.5740 C.3    47  GLU47       0.0388
     34  CG        30.1430  -19.4320   -3.8150 C.3    47  GLU47       0.1160
     35  CD        29.5420  -18.8080   -5.0720 C.2    47  GLU47       0.3649
     36  OE1       28.3640  -19.0770   -5.3820 O.co2  47  GLU47      -0.2457
     37  OE2       30.2560  -18.0500   -5.7600 O.co2  47  GLU47      -0.2457
     38  N         27.5030  -13.1910   -2.9320 N.3    53  TYR53      -0.1241
     39  CA        26.3720  -12.6970   -3.6970 C.3    53  TYR53       0.1605
     40  C         25.1250  -12.6780   -2.8500 C.2    53  TYR53       0.2264
     41  O         25.1140  -13.1300   -1.7020 O.2    53  TYR53      -0.2867
     42  CB        26.0930  -13.6140   -4.8780 C.3    53  TYR53       0.0534
     43  CG        27.0210  -13.4890   -6.0540 C.ar   53  TYR53      -0.0201
     44  CD1       26.8230  -12.4930   -7.0250 C.ar   53  TYR53      -0.0009
     45  CD2       28.0360  -14.4220   -6.2600 C.ar   53  TYR53      -0.0009
     46  CE1       27.6050  -12.4460   -8.1730 C.ar   53  TYR53       0.0417
     47  CE2       28.8240  -14.3850   -7.4040 C.ar   53  TYR53       0.0417
     48  CZ        28.6040  -13.4030   -8.3580 C.ar   53  TYR53       0.1957
     49  OH        29.3590  -13.3960   -9.5130 O.3    53  TYR53      -0.2866
     50  N         21.9610   -1.5670  -12.1630 N.3    72  GLU72      -0.1245
     51  CA        22.3730   -2.1750  -13.4190 C.3    72  GLU72       0.1567
     52  C         22.2240   -3.6930  -13.2650 C.2    72  GLU72       0.2260
     53  O         22.3300   -4.2430  -12.1570 O.2    72  GLU72      -0.2867
     54  CB        23.8250   -1.8130  -13.7510 C.3    72  GLU72       0.0388
     55  CG        24.8870   -2.4090  -12.8270 C.3    72  GLU72       0.1160
     56  CD        25.1680   -3.8890  -13.0890 C.2    72  GLU72       0.3649
     57  OE1       25.2040   -4.2870  -14.2770 O.co2  72  GLU72      -0.2457
     58  OE2       25.3680   -4.6470  -12.1100 O.co2  72  GLU72      -0.2457
     59  N         22.1830   -7.6070  -15.9160 N.3    74  ALA74      -0.1245
     60  CA        22.3830   -8.2240  -17.2100 C.3    74  ALA74       0.1562
     61  C         22.2630   -9.7270  -17.0620 C.2    74  ALA74       0.2260
     62  O         22.6000  -10.2920  -16.0150 O.2    74  ALA74      -0.2867
     63  CB        23.7480   -7.8610  -17.7440 C.3    74  ALA74       0.0290
     64  N         23.5960  -13.1880  -17.9770 N.3    76  VAL76      -0.1231
     65  CA        24.7960  -13.8220  -18.4880 C.3    76  VAL76       0.1692
     66  C         24.5750  -15.3230  -18.5830 C.2    76  VAL76       0.2592
     67  O         24.2480  -15.9760  -17.5830 O.2    76  VAL76      -0.2718
     68  CB        26.0070  -13.5230  -17.5810 C.3    76  VAL76       0.0266
     69  CG1       27.2470  -14.2480  -18.0890 C.3    76  VAL76       0.0020
     70  CG2       26.2490  -12.0180  -17.5520 C.3    76  VAL76       0.0020
     71  N         24.7690  -15.8520  -19.7940 N.am   77  PHE77      -0.1976
     72  CA        24.5890  -17.2690  -20.1050 C.3    77  PHE77       0.1639
     73  C         23.8170  -18.0880  -19.0630 C.2    77  PHE77       0.2290
     74  O         24.3700  -18.9640  -18.3840 O.2    77  PHE77      -0.2864
     75  CB        25.9440  -17.9390  -20.4600 C.3    77  PHE77       0.0560
     76  CG        27.0650  -17.6870  -19.4670 C.ar   77  PHE77      -0.0200
     77  CD1       28.3960  -17.6660  -19.9100 C.ar   77  PHE77      -0.0042
     78  CD2       26.8080  -17.5060  -18.1000 C.ar   77  PHE77      -0.0042
     79  CE1       29.4580  -17.4660  -19.0120 C.ar   77  PHE77      -0.0003
     80  CE2       27.8620  -17.3040  -17.1890 C.ar   77  PHE77      -0.0003
     81  CZ        29.1920  -17.2850  -17.6490 C.ar   77  PHE77      -0.0000
     82  N         22.3310  -11.0990  -13.1150 N.3    81  TYR81      -0.1227
     83  CA        23.2610  -10.4660  -12.1840 C.3    81  TYR81       0.1736
     84  C         22.8880   -8.9990  -12.0530 C.2    81  TYR81       0.2596
     85  O         22.6720   -8.3130  -13.0640 O.2    81  TYR81      -0.2718
     86  CB        24.7000  -10.5550  -12.6890 C.3    81  TYR81       0.0548
     87  CG        25.2700  -11.9530  -12.6890 C.ar   81  TYR81      -0.0200
     88  CD1       24.9940  -12.8420  -13.7250 C.ar   81  TYR81      -0.0009
     89  CD2       26.0580  -12.3990  -11.6300 C.ar   81  TYR81      -0.0009
     90  CE1       25.4860  -14.1360  -13.7060 C.ar   81  TYR81       0.0417
     91  CE2       26.5530  -13.6930  -11.6010 C.ar   81  TYR81       0.0417
     92  CZ        26.2650  -14.5560  -12.6400 C.ar   81  TYR81       0.1957
     93  OH        26.7740  -15.8360  -12.6200 O.3    81  TYR81      -0.2866
     94  N         22.8280   -8.5090  -10.8170 N.am   82  GLY82      -0.1942
     95  CA        22.4590   -7.1210  -10.6140 C.3    82  GLY82       0.2014
     96  C         23.0020   -6.4510   -9.3660 C.2    82  GLY82       0.2639
     97  O         23.2830   -7.0890   -8.3400 O.2    82  GLY82      -0.2714
     98  N         23.1360   -5.1350   -9.4640 N.am   83  THR83      -0.1950
     99  CA        23.6390   -4.3420   -8.3660 C.3    83  THR83       0.1897
    100  C         22.4800   -3.5260   -7.8060 C.2    83  THR83       0.2313
    101  O         22.0970   -2.4840   -8.3740 O.2    83  THR83      -0.2863
    102  CB        24.7580   -3.4210   -8.8490 C.3    83  THR83       0.1794
    103  OG1       25.7980   -4.2300   -9.3980 O.3    83  THR83      -0.2208
    104  CG2       25.3190   -2.5970   -7.7060 C.3    83  THR83       0.0378
    105  N         32.8680   -3.0100   -8.4640 N.3   101  ASP101     -0.1225
    106  CA        33.6770   -3.5050   -9.5610 C.3   101  ASP101      0.1805
    107  C         32.7800   -3.7310  -10.7740 C.2   101  ASP101      0.2598
    108  O         31.9340   -4.6220  -10.7510 O.2   101  ASP101     -0.2718
    109  CB        34.3180   -4.8300   -9.1460 C.3   101  ASP101      0.1424
    110  CG        35.3480   -5.3300  -10.1420 C.2   101  ASP101      0.3668
    111  OD1       35.1440   -5.1650  -11.3700 O.co2 101  ASP101     -0.2456
    112  OD2       36.3620   -5.9070   -9.6910 O.co2 101  ASP101     -0.2456
    113  N         32.9440   -2.9350  -11.8290 N.am  102  ILE102     -0.1966
    114  CA        32.1310   -3.1220  -13.0350 C.3   102  ILE102      0.1727
    115  C         32.8460   -2.7820  -14.3190 C.2   102  ILE102      0.2616
    116  O         33.9010   -2.1650  -14.3050 O.2   102  ILE102     -0.2715
    117  CB        30.8590   -2.2550  -13.0400 C.3   102  ILE102      0.0290
    118  CG1       31.1820   -0.9090  -12.4130 C.3   102  ILE102      0.0022
    119  CG2       29.6820   -2.9960  -12.3940 C.3   102  ILE102      0.0023
    120  CD1       29.9720   -0.0500  -12.2560 C.3   102  ILE102      0.0001
    121  N         32.2390   -3.1830  -15.4310 N.am  103  ASP103     -0.1971
    122  CA        32.7670   -2.9130  -16.7630 C.3   103  ASP103      0.1709
    123  C         32.4240   -1.4640  -17.1330 C.2   103  ASP103      0.2293
    124  O         31.6040   -0.8250  -16.4770 O.2   103  ASP103     -0.2864
    125  CB        32.1410   -3.8710  -17.7720 C.3   103  ASP103      0.1436
    126  CG        30.6180   -3.8130  -17.7650 C.2   103  ASP103      0.3671
    127  OD1       29.9960   -4.2790  -16.7720 O.co2 103  ASP103     -0.2456
    128  OD2       30.0390   -3.2890  -18.7510 O.co2 103  ASP103     -0.2456
@<TRIPOS>BOND
     1    75    72    1
     2    75    76    1
     3    72    71    1
     4    72    73    1
     5    77    76   ar
     6    77    79   ar
     7    71    66   am
     8    76    78   ar
     9    73    74    2
    10    79    81   ar
    11   128   126   ar
    12    66    65    1
    13    66    67    2
    14    65    64    1
    15    65    68    1
    16    78    80   ar
    17    69    68    1
    18   125   126    1
    19   125   122    1
    20   126   127   ar
    21    63    60    1
    22    81    80   ar
    23    68    70    1
    24    60    61    1
    25    60    59    1
    26   123   122    1
    27   123   124    2
    28    61    62    2
    29   122   121    1
    30   121   115   am
    31   115   116    2
    32   115   114    1
    33    57    56   ar
    34    54    51    1
    35    54    55    1
    36    88    90   ar
    37    88    87   ar
    38    90    92   ar
    39    51    52    1
    40    51    50    1
    41    52    53    2
    42    82    83    1
    43    56    55    1
    44    56    58   ar
    45    85    84    2
    46   117   114    1
    47   117   118    1
    48   117   119    1
    49   114   113    1
    50    87    86    1
    51    87    89   ar
    52    86    83    1
    53    92    93    1
    54    92    91   ar
    55   118   120    1
    56    83    84    1
    57    84    94   am
    58   113   107   am
    59    89    91   ar
    60   111   110   ar
    61    28    26    1
    62    11     8    1
    63    11    12    1
    64    94    95    1
    65    13    12    1
    66    13    14    1
    67   107   108    2
    68   107   106    1
    69    95    96    1
    70     8     7    1
    71     8     9    1
    72    26    25    2
    73    26    27    1
    74   110   112   ar
    75   110   109    1
    76    14    15    2
    77    25    24    1
    78   106   109    1
    79   106   105    1
    80    49    48    1
    81    98    96   am
    82    98    99    1
    83   103   102    1
    84    96    97    2
    85     9    10    2
    86    15    16    1
    87    15    17    1
    88   102    99    1
    89   102   104    1
    90   101   100    2
    91    99   100    1
    92    48    46   ar
    93    48    47   ar
    94    24    23    1
    95    46    44   ar
    96     6     5    1
    97    23    22    1
    98     5     2    1
    99    47    45   ar
   100    44    43   ar
   101    22    19    1
   102     2     3    1
   103     2     1    1
   104    45    43   ar
   105     3     4    2
   106    43    42    1
   107    37    35   ar
   108    19    18    1
   109    19    20    1
   110    36    35   ar
   111    35    34    1
   112    42    39    1
   113    20    21    2
   114    34    33    1
   115    39    38    1
   116    39    40    1
   117    40    41    2
   118    33    30    1
   119    30    29    1
   120    30    31    1
   121    31    32    2
