@<TRIPOS>MOLECULE
tmp/2f3uA01.pdb
 183 175 0 0 0
SMALL
GASTEIGER

@<TRIPOS>ATOM
      1  N         32.8650   20.1720   39.3120 N.3    77  GLU77      -0.1245
      2  CA        31.5410   20.6430   38.9270 C.3    77  GLU77       0.1567
      3  C         30.5680   19.5260   38.5730 C.2    77  GLU77       0.2260
      4  O         30.9160   18.5760   37.8730 O.2    77  GLU77      -0.2867
      5  CB        31.6350   21.5860   37.7210 C.3    77  GLU77       0.0388
      6  CG        32.5260   22.8030   37.9230 C.3    77  GLU77       0.1160
      7  CD        32.4490   23.7770   36.7580 C.2    77  GLU77       0.3649
      8  OE1       33.3230   24.6550   36.6500 O.co2  77  GLU77      -0.2457
      9  OE2       31.5090   23.6710   35.9480 O.co2  77  GLU77      -0.2457
     10  N         29.3350   25.5000   35.9220 N.3   122  ASN122     -0.1225
     11  CA        29.2930   26.7110   35.1090 C.3   122  ASN122      0.1785
     12  C         28.5620   26.5350   33.7890 C.2   122  ASN122      0.2598
     13  O         27.8360   27.4210   33.3450 O.2   122  ASN122     -0.2718
     14  CB        30.7150   27.1750   34.8090 C.3   122  ASN122      0.1169
     15  CG        31.3300   27.9280   35.9600 C.2   122  ASN122      0.2627
     16  OD1       30.9730   29.0770   36.2190 O.2   122  ASN122     -0.2716
     17  ND2       32.2510   27.2820   36.6700 N.am  122  ASN122     -0.0877
     18  N         28.7670   25.3890   33.1570 N.am  123  GLY123     -0.1942
     19  CA        28.1280   25.1540   31.8840 C.3   123  GLY123      0.2014
     20  C         28.3170   23.7460   31.3770 C.2   123  GLY123      0.2639
     21  O         27.9770   22.7830   32.0680 O.2   123  GLY123     -0.2714
     22  N         28.8790   23.6400   30.1740 N.am  124  GLY124     -0.1939
     23  CA        29.0880   22.3550   29.5280 C.3   124  GLY124      0.2014
     24  C         29.8500   21.2880   30.2830 C.2   124  GLY124      0.2638
     25  O         29.4400   20.1280   30.3100 O.2   124  GLY124     -0.2714
     26  N         30.9720   21.6660   30.8810 N.am  125  LEU125     -0.1977
     27  CA        31.7880   20.7160   31.6290 C.3   125  LEU125      0.1596
     28  C         31.0040   20.1370   32.8100 C.2   125  LEU125      0.2287
     29  O         30.9790   18.9240   33.0140 O.2   125  LEU125     -0.2864
     30  CB        33.0620   21.4090   32.1210 C.3   125  LEU125      0.0297
     31  CG        34.0500   20.6180   32.9750 C.3   125  LEU125      0.0022
     32  CD1       35.3550   20.4550   32.2290 C.3   125  LEU125      0.0001
     33  CD2       34.2940   21.3660   34.2770 C.3   125  LEU125      0.0001
     34  N         28.0320   17.9640   31.5950 N.3   128  LEU128     -0.1245
     35  CA        28.4940   16.6900   31.0570 C.3   128  LEU128      0.1561
     36  C         28.6480   15.6860   32.1970 C.2   128  LEU128      0.2260
     37  O         28.2790   14.5210   32.0680 O.2   128  LEU128     -0.2867
     38  CB        29.8350   16.8560   30.3370 C.3   128  LEU128      0.0270
     39  CG        30.3050   15.5880   29.6100 C.3   128  LEU128      0.0019
     40  CD1       29.4440   15.3650   28.3690 C.3   128  LEU128      0.0001
     41  CD2       31.7750   15.7160   29.2240 C.3   128  LEU128      0.0001
     42  N         33.9700   30.7970   36.5060 N.3   265  ASN265     -0.1225
     43  CA        34.6360   30.9440   35.2180 C.3   265  ASN265      0.1785
     44  C         34.3580   29.7950   34.2600 C.2   265  ASN265      0.2597
     45  O         34.3670   28.6250   34.6440 O.2   265  ASN265     -0.2718
     46  CB        36.1450   31.0780   35.4140 C.3   265  ASN265      0.1169
     47  CG        36.5120   32.2940   36.2300 C.2   265  ASN265      0.2627
     48  OD1       36.1410   33.4130   35.8850 O.2   265  ASN265     -0.2716
     49  ND2       37.2400   32.0830   37.3210 N.am  265  ASN265     -0.0877
     50  N         34.1100   30.1430   33.0070 N.am  266  ASP266     -0.1960
     51  CA        33.8550   29.1560   31.9720 C.3   266  ASP266      0.1840
     52  C         35.0080   29.3110   30.9840 C.2   266  ASP266      0.2622
     53  O         35.1990   30.3830   30.4140 O.2   266  ASP266     -0.2715
     54  CB        32.5240   29.4550   31.2690 C.3   266  ASP266      0.1450
     55  CG        32.0920   28.3390   30.3190 C.2   266  ASP266      0.3671
     56  OD1       31.5130   27.3380   30.7980 O.co2 266  ASP266     -0.2456
     57  OD2       32.3350   28.4570   29.0930 O.co2 266  ASP266     -0.2456
     58  N         35.7940   28.2580   30.7970 N.am  267  ASN267     -0.1958
     59  CA        36.9130   28.3280   29.8620 C.3   267  ASN267      0.1819
     60  C         37.8550   29.4950   30.1690 C.2   267  ASN267      0.2621
     61  O         38.1660   30.3020   29.2930 O.2   267  ASN267     -0.2715
     62  CB        36.3810   28.4510   28.4260 C.3   267  ASN267      0.1195
     63  CG        35.9900   27.1080   27.8310 C.2   267  ASN267      0.2630
     64  OD1       36.8480   26.3380   27.3970 O.2   267  ASN267     -0.2716
     65  ND2       34.6910   26.8140   27.8220 N.am  267  ASN267     -0.0877
     66  N         38.3040   29.5780   31.4180 N.am  268  PHE268     -0.1974
     67  CA        39.2230   30.6340   31.8350 C.3   268  PHE268      0.1639
     68  C         39.8880   30.2600   33.1580 C.2   268  PHE268      0.2290
     69  O         39.2050   29.9460   34.1400 O.2   268  PHE268     -0.2864
     70  CB        38.4810   31.9620   31.9930 C.3   268  PHE268      0.0560
     71  CG        39.3850   33.1230   32.2850 C.ar  268  PHE268     -0.0200
     72  CD1       40.2890   33.5700   31.3290 C.ar  268  PHE268     -0.0042
     73  CD2       39.3530   33.7540   33.5230 C.ar  268  PHE268     -0.0042
     74  CE1       41.1540   34.6320   31.6000 C.ar  268  PHE268     -0.0003
     75  CE2       40.2150   34.8190   33.8080 C.ar  268  PHE268     -0.0003
     76  CZ        41.1160   35.2570   32.8450 C.ar  268  PHE268     -0.0000
     77  N         38.9360   17.0900   33.1950 N.3   313  ASP313     -0.1239
     78  CA        39.8570   18.1770   32.9030 C.3   313  ASP313      0.1674
     79  C         40.9970   18.1110   33.9180 C.2   313  ASP313      0.2266
     80  O         41.1500   17.1040   34.5990 O.2   313  ASP313     -0.2867
     81  CB        39.1980   19.5510   32.9460 C.3   313  ASP313      0.1410
     82  CG        39.8720   20.5240   31.9890 C.2   313  ASP313      0.3668
     83  OD1       39.5100   20.5490   30.7940 O.co2 313  ASP313     -0.2456
     84  OD2       40.7950   21.2350   32.4200 O.co2 313  ASP313     -0.2456
     85  N         41.3790   20.0340   36.6160 N.3   315  HIS315     -0.1241
     86  CA        41.0090   20.4990   37.9500 C.3   315  HIS315      0.1621
     87  C         41.3900   19.5350   39.0700 C.2   315  HIS315      0.2264
     88  O         41.8040   19.9640   40.1400 O.2   315  HIS315     -0.2867
     89  CB        39.5180   20.8340   37.9770 C.3   315  HIS315      0.0745
     90  CG        39.1060   21.7510   36.8680 C.ar  315  HIS315      0.0817
     91  ND1       37.8000   21.8840   36.4530 N.ar  315  HIS315     -0.2268
     92  CD2       39.8390   22.5650   36.0700 C.ar  315  HIS315      0.1154
     93  CE1       37.7450   22.7380   35.4460 C.ar  315  HIS315      0.1986
     94  NE2       38.9690   23.1660   35.1940 N.ar  315  HIS315     -0.2212
     95  N         39.0060   19.3370   27.8430 N.3   351  HIS351     -0.1226
     96  CA        37.7850   19.9900   27.3860 C.3   351  HIS351      0.1752
     97  C         37.9640   21.3020   26.6300 C.2   351  HIS351      0.2596
     98  O         36.9760   21.9610   26.3210 O.2   351  HIS351     -0.2718
     99  CB        36.8640   20.2520   28.5820 C.3   351  HIS351      0.0759
    100  CG        36.4030   19.0110   29.2790 C.ar  351  HIS351      0.0818
    101  ND1       35.2890   18.3060   28.8830 N.ar  351  HIS351     -0.2268
    102  CD2       36.9130   18.3480   30.3440 C.ar  351  HIS351      0.1154
    103  CE1       35.1280   17.2620   29.6760 C.ar  351  HIS351      0.1986
    104  NE2       36.1010   17.2630   30.5720 N.ar  351  HIS351     -0.2212
    105  N         39.1990   21.6970   26.3380 N.am  352  THR352     -0.1953
    106  CA        39.4000   22.9500   25.6120 C.3   352  THR352      0.1897
    107  C         40.8350   23.1220   25.1410 C.2   352  THR352      0.2313
    108  O         41.7550   22.5350   25.7070 O.2   352  THR352     -0.2863
    109  CB        39.0240   24.1780   26.4860 C.3   352  THR352      0.1794
    110  OG1       39.0450   25.3700   25.6860 O.3   352  THR352     -0.2208
    111  CG2       40.0110   24.3330   27.6340 C.3   352  THR352      0.0378
    112  N         42.6050   29.0940   29.1830 N.3   357  ALA357     -0.1245
    113  CA        41.8470   28.1720   30.0240 C.3   357  ALA357      0.1562
    114  C         42.7110   27.0890   30.6750 C.2   357  ALA357      0.2260
    115  O         42.2920   26.4550   31.6440 O.2   357  ALA357     -0.2867
    116  CB        40.7370   27.5250   29.2020 C.3   357  ALA357      0.0290
    117  N         36.9310   15.5510   23.3510 N.3   429  VAL429     -0.1245
    118  CA        35.4940   15.3280   23.4700 C.3   429  VAL429      0.1561
    119  C         34.6440   15.3680   22.2070 C.2   429  VAL429      0.2260
    120  O         33.4160   15.3550   22.2770 O.2   429  VAL429     -0.2867
    121  CB        34.9180   16.2910   24.5230 C.3   429  VAL429      0.0252
    122  CG1       35.4390   15.8920   25.9060 C.3   429  VAL429      0.0019
    123  CG2       35.3420   17.7270   24.2090 C.3   429  VAL429      0.0019
    124  N         31.2450   13.6410   23.0580 N.3   458  ASN458     -0.1240
    125  CA        30.2700   13.9080   24.1100 C.3   458  ASN458      0.1653
    126  C         28.8700   13.4560   23.7250 C.2   458  ASN458      0.2266
    127  O         28.5950   13.1300   22.5690 O.2   458  ASN458     -0.2867
    128  CB        30.2230   15.4110   24.4210 C.3   458  ASN458      0.1155
    129  CG        31.3990   15.8820   25.2850 C.2   458  ASN458      0.2627
    130  OD1       31.6200   17.0920   25.4580 O.2   458  ASN458     -0.2716
    131  ND2       32.1430   14.9360   25.8370 N.am  458  ASN458     -0.0877
    132  N         34.6060   33.5870   22.0340 N.3   547  TYR547     -0.1227
    133  CA        34.7490   32.5070   21.0630 C.3   547  TYR547      0.1736
    134  C         33.4140   31.9180   20.6120 C.2   547  TYR547      0.2595
    135  O         33.3220   31.3720   19.5150 O.2   547  TYR547     -0.2718
    136  CB        35.6910   31.4130   21.6010 C.3   547  TYR547      0.0548
    137  CG        35.0620   30.3030   22.4120 C.ar  547  TYR547     -0.0200
    138  CD1       34.4440   29.2180   21.7860 C.ar  547  TYR547     -0.0009
    139  CD2       35.1370   30.3030   23.8080 C.ar  547  TYR547     -0.0009
    140  CE1       33.9240   28.1590   22.5270 C.ar  547  TYR547      0.0417
    141  CE2       34.6170   29.2470   24.5570 C.ar  547  TYR547      0.0417
    142  CZ        34.0160   28.1800   23.9130 C.ar  547  TYR547      0.1957
    143  OH        33.5140   27.1270   24.6470 O.3   547  TYR547     -0.2866
    144  N         32.3810   32.0450   21.4420 N.am  548  LYS548     -0.1980
    145  CA        31.0590   31.5230   21.0890 C.3   548  LYS548      0.1596
    146  C         30.3590   32.4780   20.1130 C.2   548  LYS548      0.2287
    147  O         29.3420   32.1410   19.5050 O.2   548  LYS548     -0.2864
    148  CB        30.2190   31.3060   22.3520 C.3   548  LYS548      0.0298
    149  CG        30.7100   30.1170   23.1990 C.3   548  LYS548      0.0038
    150  CD        30.0370   30.0510   24.5580 C.3   548  LYS548      0.0206
    151  CE        30.5900   28.9050   25.4120 C.3   548  LYS548      0.1093
    152  NZ        30.2310   27.5610   24.8500 N.3   548  LYS548     -0.1314
    153  N         35.3160   25.5750   19.8870 N.3   646  GLU646     -0.1231
    154  CA        34.3650   24.8580   20.7390 C.3   646  GLU646      0.1699
    155  C         34.7630   23.3850   20.6900 C.2   646  GLU646      0.2592
    156  O         34.5260   22.7190   19.6890 O.2   646  GLU646     -0.2718
    157  CB        32.9340   25.0360   20.2100 C.3   646  GLU646      0.0402
    158  CG        31.8250   24.5630   21.1550 C.3   646  GLU646      0.1161
    159  CD        31.6950   25.4350   22.3950 C.2   646  GLU646      0.3649
    160  OE1       32.3760   25.1580   23.4070 O.co2 646  GLU646     -0.2457
    161  OE2       30.9150   26.4100   22.3500 O.co2 646  GLU646     -0.2457
    162  N         35.3750   22.8840   21.7660 N.am  647  ALA647     -0.1966
    163  CA        35.8310   21.4960   21.8240 C.3   647  ALA647      0.1728
    164  C         34.7710   20.5170   21.3280 C.2   647  ALA647      0.2617
    165  O         35.0500   19.6450   20.5000 O.2   647  ALA647     -0.2715
    166  CB        36.2500   21.1360   23.2430 C.3   647  ALA647      0.0334
    167  N         33.5520   20.6590   21.8310 N.am  648  SER648     -0.1936
    168  CA        32.4720   19.7840   21.4030 C.3   648  SER648      0.2055
    169  C         31.1590   20.5250   21.3510 C.2   648  SER648      0.2644
    170  O         30.5540   20.6790   20.2860 O.2   648  SER648     -0.2714
    171  CB        32.3270   18.6010   22.3630 C.3   648  SER648      0.2130
    172  OG        31.1600   17.8440   22.0700 O.3   648  SER648     -0.2179
    173  N         30.7490   21.0050   22.5190 N.am  649  GLY649     -0.1939
    174  CA        29.4750   21.6740   22.6530 C.3   649  GLY649      0.2014
    175  C         28.5280   20.5390   23.0080 C.2   649  GLY649      0.2639
    176  O         28.7700   19.4020   22.6060 O.2   649  GLY649     -0.2714
    177  N         27.4910   20.8130   23.7920 N.am  650  THR650     -0.1950
    178  CA        26.5180   19.7790   24.1430 C.3   650  THR650      0.1897
    179  C         25.1280   20.3690   23.9770 C.2   650  THR650      0.2313
    180  O         24.1550   19.6460   23.7390 O.2   650  THR650     -0.2863
    181  CB        26.7030   19.2510   25.5870 C.3   650  THR650      0.1794
    182  OG1       26.7890   20.3480   26.5000 O.3   650  THR650     -0.2208
    183  CG2       27.9640   18.4040   25.6780 C.3   650  THR650      0.0378
@<TRIPOS>BOND
     1   147   146    2
     2   135   134    2
     3   156   155    2
     4   153   154    1
     5   146   145    1
     6   157   154    1
     7   157   158    1
     8   170   169    2
     9   165   164    2
    10   134   133    1
    11   134   144   am
    12   155   154    1
    13   155   162   am
    14   133   136    1
    15   133   132    1
    16   145   144    1
    17   145   148    1
    18   158   159    1
    19   164   163    1
    20   164   167   am
    21   169   168    1
    22   169   173   am
    23   168   167    1
    24   168   171    1
    25   136   137    1
    26   162   163    1
    27   138   137   ar
    28   138   140   ar
    29   163   166    1
    30   172   171    1
    31   119   120    2
    32   119   118    1
    33   161   159   ar
    34   148   149    1
    35   159   160   ar
    36   137   139   ar
    37   173   174    1
    38   140   142   ar
    39   127   126    2
    40   176   175    2
    41   174   175    1
    42   175   177   am
    43   124   125    1
    44   149   150    1
    45   117   118    1
    46   118   121    1
    47   126   125    1
    48   180   179    2
    49   177   178    1
    50   139   141   ar
    51   142   141   ar
    52   142   143    1
    53   179   178    1
    54   125   128    1
    55   178   181    1
    56   123   121    1
    57   128   129    1
    58   121   122    1
    59   150   151    1
    60   152   151    1
    61   107   106    1
    62   107   108    2
    63   129   130    2
    64   129   131   am
    65   181   183    1
    66   181   182    1
    67   106   105    1
    68   106   109    1
    69   110   109    1
    70    98    97    2
    71   105    97   am
    72   109   111    1
    73    97    96    1
    74    96    95    1
    75    96    99    1
    76    64    63    2
    77    65    63   am
    78    63    62    1
    79    40    39    1
    80    62    59    1
    81    99   100    1
    82   101   100   ar
    83   101   103   ar
    84    57    55   ar
    85   112   113    1
    86   116   113    1
    87    41    39    1
    88   100   102   ar
    89    61    60    2
    90    23    22    1
    91    23    24    1
    92    39    38    1
    93   103   104   ar
    94    59    60    1
    95    59    58    1
    96   113   114    1
    97    60    66   am
    98    22    20   am
    99    24    25    2
   100    24    26   am
   101    55    56   ar
   102    55    54    1
   103    38    35    1
   104   102   104   ar
   105    53    52    2
   106   114   115    2
   107    83    82   ar
   108    58    52   am
   109    26    27    1
   110    52    51    1
   111    35    34    1
   112    35    36    1
   113    54    51    1
   114    72    74   ar
   115    72    71   ar
   116    20    19    1
   117    20    21    2
   118    66    67    1
   119    74    76   ar
   120    27    30    1
   121    27    28    1
   122    67    70    1
   123    67    68    1
   124    19    18    1
   125    51    50    1
   126    82    84   ar
   127    82    81    1
   128    70    71    1
   129    37    36    2
   130    30    31    1
   131    32    31    1
   132    71    73   ar
   133    28    29    2
   134    76    75   ar
   135    78    81    1
   136    78    77    1
   137    78    79    1
   138    31    33    1
   139    50    44   am
   140    18    12   am
   141    68    69    2
   142    13    12    2
   143    73    75   ar
   144    12    11    1
   145    79    80    2
   146    44    45    2
   147    44    43    1
   148    14    11    1
   149    14    15    1
   150    11    10    1
   151    94    93   ar
   152    94    92   ar
   153    43    46    1
   154    43    42    1
   155    46    47    1
   156    93    91   ar
   157    48    47    2
   158     9     7   ar
   159    15    16    2
   160    15    17   am
   161    92    90   ar
   162    47    49   am
   163    91    90   ar
   164    85    86    1
   165     8     7   ar
   166     7     6    1
   167    90    89    1
   168     5     6    1
   169     5     2    1
   170     4     3    2
   171    86    89    1
   172    86    87    1
   173     3     2    1
   174     2     1    1
   175    87    88    2
