@<TRIPOS>MOLECULE
tmp/2f3xA01.pdb
 113 112 0 0 0
SMALL
GASTEIGER

@<TRIPOS>ATOM
      1  N          7.9260  -36.6770   79.3530 N.3    56  PHE56      -0.1241
      2  CA         9.1280  -36.2180   78.5890 C.3    56  PHE56       0.1605
      3  C         10.4630  -36.6580   79.2060 C.2    56  PHE56       0.2264
      4  O         10.7130  -36.4420   80.4060 O.2    56  PHE56      -0.2867
      5  CB         9.2280  -34.7150   78.6370 C.3    56  PHE56       0.0534
      6  CG         8.1880  -33.9920   77.8620 C.ar   56  PHE56      -0.0203
      7  CD1        8.2390  -33.9850   76.4880 C.ar   56  PHE56      -0.0042
      8  CD2        7.2100  -33.2390   78.5060 C.ar   56  PHE56      -0.0042
      9  CE1        7.3350  -33.2790   75.7600 C.ar   56  PHE56      -0.0003
     10  CE2        6.3010  -32.5380   77.7730 C.ar   56  PHE56      -0.0003
     11  CZ         6.3750  -32.5630   76.3900 C.ar   56  PHE56      -0.0000
     12  N          8.3770  -34.6430   83.0270 N.3    61  ILE61      -0.1231
     13  CA         7.0570  -33.9870   83.0700 C.3    61  ILE61       0.1692
     14  C          6.0380  -34.8100   82.2960 C.2    61  ILE61       0.2592
     15  O          6.3440  -35.3790   81.2390 O.2    61  ILE61      -0.2718
     16  CB         7.0850  -32.5590   82.4650 C.3    61  ILE61       0.0266
     17  CG1        7.8810  -31.6220   83.3740 C.3    61  ILE61       0.0019
     18  CG2        5.6700  -32.0060   82.2770 C.3    61  ILE61       0.0020
     19  CD1        8.2470  -30.3200   82.7150 C.3    61  ILE61       0.0001
     20  N          4.8150  -34.8630   82.8000 N.am   62  ALA62      -0.1966
     21  CA         3.7810  -35.6170   82.1050 C.3    62  ALA62       0.1728
     22  C          3.3560  -34.9280   80.8290 C.2    62  ALA62       0.2616
     23  O          3.2630  -33.7030   80.7530 O.2    62  ALA62      -0.2715
     24  CB         2.5850  -35.8500   82.9820 C.3    62  ALA62       0.0334
     25  N          3.0990  -35.7430   79.8210 N.am   63  ARG63      -0.1963
     26  CA         2.5740  -35.2620   78.5710 C.3    63  ARG63       0.1729
     27  C          1.1570  -34.8330   78.8040 C.2    63  ARG63       0.2617
     28  O          0.3930  -35.5310   79.4750 O.2    63  ARG63      -0.2715
     29  CB         2.6050  -36.3780   77.5320 C.3    63  ARG63       0.0348
     30  CG         3.9880  -36.9040   77.2650 C.3    63  ARG63       0.0492
     31  CD         4.9000  -35.7580   76.8700 C.3    63  ARG63       0.2205
     32  NE         4.5200  -35.1150   75.5930 N.pl3  63  ARG63      -0.0865
     33  CZ         4.8300  -35.5900   74.3750 C.cat  63  ARG63       0.5346
     34  NH1        5.5060  -36.7140   74.2740 N.pl3  63  ARG63       0.1354
     35  NH2        4.4860  -34.9480   73.2560 N.pl3  63  ARG63       0.1354
     36  N          0.8010  -33.6820   78.2650 N.am   64  GLY64      -0.1940
     37  CA        -0.5670  -33.2260   78.3560 C.3    64  GLY64       0.2014
     38  C         -1.5670  -34.2340   77.8160 C.2    64  GLY64       0.2638
     39  O         -2.6310  -34.3440   78.3490 O.2    64  GLY64      -0.2714
     40  N         -1.2410  -34.9760   76.7640 N.am   65  HIS65      -0.1973
     41  CA        -2.2430  -35.8860   76.2040 C.3    65  HIS65       0.1656
     42  C         -2.6350  -37.0300   77.1300 C.2    65  HIS65       0.2291
     43  O         -3.7190  -37.5880   76.9730 O.2    65  HIS65      -0.2864
     44  CB        -1.8400  -36.4650   74.8520 C.3    65  HIS65       0.0771
     45  CG        -0.5350  -37.2140   74.8340 C.ar   65  HIS65       0.0820
     46  ND1        0.6730  -36.6000   74.5540 N.ar   65  HIS65      -0.2267
     47  CD2       -0.2650  -38.5350   74.9530 C.ar   65  HIS65       0.1154
     48  CE1        1.6320  -37.5080   74.5320 C.ar   65  HIS65       0.1986
     49  NE2        1.0910  -38.6880   74.7770 N.ar   65  HIS65      -0.2212
     50  N         -2.7890  -36.6480   80.6410 N.3    67  LEU67      -0.1245
     51  CA        -3.7450  -35.9040   81.4390 C.3    67  LEU67       0.1561
     52  C         -5.1150  -35.7760   80.7340 C.2    67  LEU67       0.2260
     53  O         -6.1730  -35.9550   81.3170 O.2    67  LEU67      -0.2867
     54  CB        -3.1500  -34.5130   81.7330 C.3    67  LEU67       0.0270
     55  CG        -2.2660  -34.3040   82.9830 C.3    67  LEU67       0.0019
     56  CD1       -1.5710  -35.5600   83.4500 C.3    67  LEU67       0.0001
     57  CD2       -1.2700  -33.1950   82.7530 C.3    67  LEU67       0.0001
     58  N         -7.3330  -26.6290   80.3570 N.3    92  ARG92      -0.1231
     59  CA        -6.3810  -25.8080   81.0290 C.3    92  ARG92       0.1694
     60  C         -5.3930  -26.7170   81.7840 C.2    92  ARG92       0.2592
     61  O         -5.7710  -27.5640   82.6040 O.2    92  ARG92      -0.2718
     62  CB        -7.1440  -24.9090   81.9780 C.3    92  ARG92       0.0321
     63  CG        -6.4660  -23.6100   82.2900 C.3    92  ARG92       0.0489
     64  CD        -7.2960  -22.7690   83.3220 C.3    92  ARG92       0.2205
     65  NE        -6.6790  -21.4450   83.5920 N.pl3  92  ARG92      -0.0865
     66  CZ        -7.0450  -20.6020   84.5710 C.cat  92  ARG92       0.5346
     67  NH1       -8.0450  -20.9110   85.4030 N.pl3  92  ARG92       0.1354
     68  NH2       -6.4140  -19.4330   84.7300 N.pl3  92  ARG92       0.1354
     69  N         -4.1170  -26.5570   81.4730 N.am   93  PHE93      -0.1962
     70  CA        -3.0500  -27.2340   82.1960 C.3    93  PHE93       0.1771
     71  C         -2.4710  -26.2680   83.2350 C.2    93  PHE93       0.2620
     72  O         -1.7100  -25.3390   82.9200 O.2    93  PHE93      -0.2715
     73  CB        -1.9690  -27.6890   81.2220 C.3    93  PHE93       0.0574
     74  CG        -2.4490  -28.6550   80.2050 C.ar   93  PHE93      -0.0200
     75  CD1       -2.7820  -28.2370   78.9390 C.ar   93  PHE93      -0.0042
     76  CD2       -2.5560  -29.9890   80.5060 C.ar   93  PHE93      -0.0042
     77  CE1       -3.2340  -29.1450   77.9660 C.ar   93  PHE93      -0.0003
     78  CE2       -2.9990  -30.8980   79.5540 C.ar   93  PHE93      -0.0003
     79  CZ        -3.3400  -30.4700   78.2760 C.ar   93  PHE93      -0.0000
     80  N         -2.8390  -26.5090   84.4810 N.am   94  THR94      -0.1937
     81  CA        -2.5930  -25.5590   85.5610 C.3    94  THR94       0.2028
     82  C         -1.3200  -25.7870   86.3590 C.2    94  THR94       0.2642
     83  O         -0.9190  -24.9430   87.0730 O.2    94  THR94      -0.2714
     84  CB        -3.8030  -25.4770   86.5220 C.3    94  THR94       0.1808
     85  OG1       -4.1820  -26.7860   86.9560 O.3    94  THR94      -0.2208
     86  CG2       -4.9940  -24.7990   85.8350 C.3    94  THR94       0.0379
     87  N         -0.6550  -26.9040   86.2180 N.am   95  ARG95      -0.1963
     88  CA         0.5250  -27.1700   87.0020 C.3    95  ARG95       0.1729
     89  C          1.2160  -28.3690   86.3970 C.2    95  ARG95       0.2616
     90  O          0.5760  -29.3300   86.0040 O.2    95  ARG95      -0.2715
     91  CB         0.1250  -27.4930   88.4360 C.3    95  ARG95       0.0348
     92  CG         1.2910  -27.8750   89.3620 C.3    95  ARG95       0.0492
     93  CD         0.7560  -28.2180   90.7670 C.3    95  ARG95       0.2205
     94  NE         1.6810  -28.9310   91.7000 N.pl3  95  ARG95      -0.0865
     95  CZ         2.1380  -30.2170   91.6130 C.cat  95  ARG95       0.5346
     96  NH1        1.9270  -31.0440   90.5440 N.pl3  95  ARG95       0.1354
     97  NH2        2.9080  -30.6650   92.6250 N.pl3  95  ARG95       0.1354
     98  N          2.5360  -28.3220   86.3470 N.am   96  GLN96      -0.1963
     99  CA         3.3260  -29.4140   85.7650 C.3    96  GLN96       0.1733
    100  C          3.2220  -30.6270   86.6470 C.2    96  GLN96       0.2616
    101  O          3.3680  -30.5250   87.8730 O.2    96  GLN96      -0.2715
    102  CB         4.7730  -28.9790   85.6200 C.3    96  GLN96       0.0408
    103  CG         4.8350  -27.6390   84.9140 C.3    96  GLN96       0.0908
    104  CD         6.2100  -27.1060   84.7060 C.2    96  GLN96       0.2608
    105  OE1        7.2150  -27.8200   84.8290 O.2    96  GLN96      -0.2717
    106  NE2        6.2730  -25.8270   84.3810 N.am   96  GLN96      -0.0878
    107  N          2.9130  -31.7710   86.0490 N.am   97  VAL97      -0.1977
    108  CA         2.9590  -33.0160   86.8140 C.3    97  VAL97       0.1596
    109  C          4.2260  -33.8070   86.4660 C.2    97  VAL97       0.2287
    110  O          4.6420  -33.9070   85.2950 O.2    97  VAL97      -0.2864
    111  CB         1.5960  -33.8440   86.8660 C.3    97  VAL97       0.0276
    112  CG1        0.4780  -33.1700   86.1200 C.3    97  VAL97       0.0022
    113  CG2        1.7870  -35.2950   86.4500 C.3    97  VAL97       0.0022
@<TRIPOS>BOND
     1    35    33    1
     2    34    33    1
     3    33    32    2
     4    48    46   ar
     5    48    49   ar
     6    46    45   ar
     7    49    47   ar
     8    45    44    1
     9    45    47   ar
    10    44    41    1
    11    32    31    1
    12     9    11   ar
    13     9     7   ar
    14    41    40    1
    15    41    42    1
    16    11    10   ar
    17     7     6   ar
    18    40    38   am
    19    31    30    1
    20    43    42    2
    21    30    29    1
    22    29    26    1
    23    10     8   ar
    24    38    39    2
    25    38    37    1
    26     6     8   ar
    27     6     5    1
    28    77    79   ar
    29    77    75   ar
    30    36    37    1
    31    36    27   am
    32    79    78   ar
    33    26    27    1
    34    26    25    1
    35     2     5    1
    36     2     3    1
    37     2     1    1
    38    27    28    2
    39    75    74   ar
    40     3     4    2
    41    78    76   ar
    42    25    22   am
    43    74    76   ar
    44    74    73    1
    45    58    59    1
    46    50    51    1
    47    52    53    2
    48    52    51    1
    49    23    22    2
    50    22    21    1
    51    59    60    1
    52    59    62    1
    53    73    70    1
    54    15    14    2
    55    51    54    1
    56    69    60   am
    57    69    70    1
    58    54    55    1
    59    60    61    2
    60    62    63    1
    61    21    20    1
    62    21    24    1
    63    70    71    1
    64    18    16    1
    65    63    64    1
    66    14    20   am
    67    14    13    1
    68    16    13    1
    69    16    17    1
    70    19    17    1
    71    57    55    1
    72    72    71    2
    73    55    56    1
    74    12    13    1
    75    71    80   am
    76    64    65    1
    77    65    66    2
    78   106   104   am
    79    80    81    1
    80    66    68    1
    81    66    67    1
    82   104   105    2
    83   104   103    1
    84   103   102    1
    85   110   109    2
    86    81    82    1
    87    81    84    1
    88   102    99    1
    89    99    98    1
    90    99   100    1
    91    86    84    1
    92    90    89    2
    93   107   100   am
    94   107   108    1
    95   112   111    1
    96    87    82   am
    97    87    88    1
    98    98    89   am
    99    82    83    2
   100    89    88    1
   101   113   111    1
   102   109   108    1
   103    84    85    1
   104   100   101    2
   105   108   111    1
   106    88    91    1
   107    91    92    1
   108    92    93    1
   109    96    95    1
   110    93    94    1
   111    95    94    2
   112    95    97    1
