@<TRIPOS>MOLECULE
tmp/2f3xA00.pdb
 99 91 0 0 0
SMALL
GASTEIGER

@<TRIPOS>ATOM
      1  N        -17.7720  -47.1620   77.0020 N.3    26  LEU26      -0.1245
      2  CA       -16.5830  -47.8880   76.5410 C.3    26  LEU26       0.1561
      3  C        -16.3790  -49.0190   77.5150 C.2    26  LEU26       0.2260
      4  O        -17.1800  -49.1660   78.4280 O.2    26  LEU26      -0.2867
      5  CB       -15.3320  -47.0210   76.5010 C.3    26  LEU26       0.0270
      6  CG       -14.9990  -45.9240   77.5280 C.3    26  LEU26       0.0019
      7  CD1      -15.7490  -45.9730   78.8270 C.3    26  LEU26       0.0001
      8  CD2      -13.5030  -45.9540   77.8040 C.3    26  LEU26       0.0001
      9  N         -8.6060  -44.4820   80.6140 N.3    32  ILE32      -0.1245
     10  CA        -7.3000  -44.1660   81.1420 C.3    32  ILE32       0.1561
     11  C         -7.4100  -43.7900   82.6120 C.2    32  ILE32       0.2260
     12  O         -8.2130  -42.8830   82.9870 O.2    32  ILE32      -0.2867
     13  CB        -6.6420  -43.0340   80.3590 C.3    32  ILE32       0.0252
     14  CG1       -6.1280  -43.5270   78.9930 C.3    32  ILE32       0.0019
     15  CG2       -5.5070  -42.4460   81.1550 C.3    32  ILE32       0.0019
     16  CD1       -7.2420  -43.7560   77.9200 C.3    32  ILE32       0.0001
     17  N         -6.2270  -37.6240   78.2940 N.3    69  ALA69      -0.1245
     18  CA        -6.8400  -38.9120   78.0700 C.3    69  ALA69       0.1562
     19  C         -7.5870  -39.3550   79.3310 C.2    69  ALA69       0.2260
     20  O         -8.6940  -39.9110   79.2530 O.2    69  ALA69      -0.2867
     21  CB        -5.8020  -39.9470   77.6160 C.3    69  ALA69       0.0290
     22  N        -10.8940  -37.1130   79.5280 N.3    72  ASN72      -0.1225
     23  CA       -11.7440  -37.2710   78.3730 C.3    72  ASN72       0.1785
     24  C        -12.3560  -38.6370   78.5370 C.2    72  ASN72       0.2597
     25  O        -13.5550  -38.7850   78.3720 O.2    72  ASN72      -0.2718
     26  CB       -10.8850  -37.1620   77.0940 C.3    72  ASN72       0.1169
     27  CG       -11.6960  -37.0550   75.7960 C.2    72  ASN72       0.2627
     28  OD1      -12.6870  -36.3580   75.7390 O.2    72  ASN72      -0.2716
     29  ND2      -11.2120  -37.7040   74.7200 N.am   72  ASN72      -0.0877
     30  N        -11.5600  -39.6360   78.9180 N.am   73  SER73      -0.1952
     31  CA       -12.0720  -41.0000   78.8800 C.3    73  SER73       0.1924
     32  C        -13.0460  -41.1700   80.0350 C.2    73  SER73       0.2314
     33  O        -13.9910  -41.9660   79.9740 O.2    73  SER73      -0.2863
     34  CB       -10.9430  -42.0580   78.8630 C.3    73  SER73       0.2116
     35  OG       -10.1220  -42.0360   80.0160 O.3    73  SER73      -0.2180
     36  N        -16.2580  -39.6770   79.1010 N.3    76  VAL76      -0.1245
     37  CA       -17.0180  -40.6370   78.3090 C.3    76  VAL76       0.1561
     38  C        -17.6710  -41.6690   79.2390 C.2    76  VAL76       0.2260
     39  O        -18.8620  -41.9900   79.1100 O.2    76  VAL76      -0.2867
     40  CB       -16.1420  -41.3640   77.2620 C.3    76  VAL76       0.0252
     41  CG1      -16.9530  -42.3650   76.5220 C.3    76  VAL76       0.0019
     42  CG2      -15.5460  -40.3710   76.2750 C.3    76  VAL76       0.0019
     43  N        -21.2160  -42.4970   73.2310 N.3    84  ALA84      -0.1231
     44  CA       -20.9850  -41.1680   73.7660 C.3    84  ALA84       0.1694
     45  C        -19.6330  -40.6780   73.1920 C.2    84  ALA84       0.2592
     46  O        -18.6380  -41.3680   73.3130 O.2    84  ALA84      -0.2718
     47  CB       -20.9620  -41.2220   75.2850 C.3    84  ALA84       0.0304
     48  N        -19.6030  -39.5300   72.5170 N.am   85  LEU85      -0.1966
     49  CA       -18.3550  -39.0470   71.9140 C.3    85  LEU85       0.1728
     50  C        -18.1020  -37.6180   72.3380 C.2    85  LEU85       0.2617
     51  O        -19.0430  -36.8470   72.6000 O.2    85  LEU85      -0.2715
     52  CB       -18.4250  -39.0940   70.4030 C.3    85  LEU85       0.0311
     53  CG       -18.9070  -40.4070   69.8180 C.3    85  LEU85       0.0022
     54  CD1      -19.3070  -40.2790   68.3680 C.3    85  LEU85       0.0001
     55  CD2      -17.8070  -41.3950   69.9740 C.3    85  LEU85       0.0001
     56  N        -16.8330  -37.2550   72.4070 N.am   86  THR86      -0.1937
     57  CA       -16.5020  -35.9210   72.7840 C.3    86  THR86       0.2028
     58  C        -16.6200  -35.0930   71.5420 C.2    86  THR86       0.2642
     59  O        -16.0310  -35.4360   70.5210 O.2    86  THR86      -0.2714
     60  CB       -15.1200  -35.8530   73.3460 C.3    86  THR86       0.1808
     61  OG1      -15.0750  -36.7150   74.4800 O.3    86  THR86      -0.2208
     62  CG2      -14.7640  -34.4280   73.7800 C.3    86  THR86       0.0379
     63  N        -17.4230  -34.0320   71.6350 N.am   87  ALA87      -0.1977
     64  CA       -17.6620  -33.1030   70.5430 C.3    87  ALA87       0.1597
     65  C        -16.6410  -31.9890   70.6590 C.2    87  ALA87       0.2287
     66  O        -16.0030  -31.6110   69.6700 O.2    87  ALA87      -0.2864
     67  CB       -19.0700  -32.5390   70.6080 C.3    87  ALA87       0.0319
     68  N        -27.9340  -28.0120   70.2670 N.3   116  LYS116     -0.1245
     69  CA       -27.3460  -29.3310   69.9260 C.3   116  LYS116      0.1561
     70  C        -27.3090  -30.3660   71.0920 C.2   116  LYS116      0.2260
     71  O        -26.3430  -31.0920   71.2270 O.2   116  LYS116     -0.2867
     72  CB       -25.9530  -29.1710   69.1870 C.3   116  LYS116      0.0271
     73  CG       -26.1610  -28.2380   67.9440 C.3   116  LYS116      0.0035
     74  CD       -24.8900  -28.1350   67.1310 C.3   116  LYS116      0.0206
     75  CE       -23.6310  -27.9190   67.9470 C.3   116  LYS116      0.1093
     76  NZ       -23.3400  -26.4200   67.8870 N.3   116  LYS116     -0.1314
     77  N        -26.2480  -31.3750   74.0350 N.3   118  ARG118     -0.1245
     78  CA       -25.0230  -31.9650   74.6090 C.3   118  ARG118      0.1563
     79  C        -25.1040  -32.1860   76.1150 C.2   118  ARG118      0.2260
     80  O        -25.7570  -31.4230   76.8130 O.2   118  ARG118     -0.2867
     81  CB       -23.8390  -31.0220   74.3580 C.3   118  ARG118      0.0307
     82  CG       -23.5050  -30.8320   72.9250 C.3   118  ARG118      0.0489
     83  CD       -22.8950  -32.0700   72.3660 C.3   118  ARG118      0.2205
     84  NE       -23.2650  -32.2700   70.9770 N.pl3 118  ARG118     -0.0865
     85  CZ       -22.6810  -31.6760   69.9460 C.cat 118  ARG118      0.5346
     86  NH1      -21.6830  -30.8140   70.1490 N.pl3 118  ARG118      0.1354
     87  NH2      -23.1080  -31.9460   68.7120 N.pl3 118  ARG118      0.1354
     88  N        -21.4700  -35.8680   73.2580 N.3   140  TYR140     -0.1241
     89  CA       -22.6210  -36.2350   72.4450 C.3   140  TYR140      0.1605
     90  C        -23.1260  -37.6730   72.7870 C.2   140  TYR140      0.2264
     91  O        -22.3000  -38.4700   73.2330 O.2   140  TYR140     -0.2867
     92  CB       -22.1830  -36.1260   70.9730 C.3   140  TYR140      0.0534
     93  CG       -22.9970  -36.9830   70.0730 C.ar  140  TYR140     -0.0201
     94  CD1      -24.0770  -36.4590   69.3770 C.ar  140  TYR140     -0.0009
     95  CD2      -22.7390  -38.3630   69.9810 C.ar  140  TYR140     -0.0009
     96  CE1      -24.8740  -37.2740   68.6150 C.ar  140  TYR140      0.0417
     97  CE2      -23.5220  -39.1790   69.2210 C.ar  140  TYR140      0.0417
     98  CZ       -24.5920  -38.6300   68.5430 C.ar  140  TYR140      0.1957
     99  OH       -25.3530  -39.4440   67.7520 O.3   140  TYR140     -0.2866
@<TRIPOS>BOND
     1    74    73    1
     2    74    75    1
     3    99    98    1
     4    76    75    1
     5    73    72    1
     6    54    53    1
     7    98    96   ar
     8    98    97   ar
     9    96    94   ar
    10    87    85    1
    11    72    69    1
    12    97    95   ar
    13    94    93   ar
    14    66    65    2
    15    53    55    1
    16    53    52    1
    17    69    68    1
    18    69    70    1
    19    85    86    1
    20    85    84    2
    21    95    93   ar
    22    93    92    1
    23    52    49    1
    24    59    58    2
    25    64    67    1
    26    64    65    1
    27    64    63    1
    28    92    89    1
    29    84    83    1
    30    70    71    2
    31    58    63   am
    32    58    57    1
    33    49    50    1
    34    49    48    1
    35    50    56   am
    36    50    51    2
    37    83    82    1
    38    56    57    1
    39    89    90    1
    40    89    88    1
    41    48    45   am
    42    57    60    1
    43    90    91    2
    44    82    81    1
    45    45    46    2
    46    45    44    1
    47    43    44    1
    48    60    62    1
    49    60    61    1
    50    44    47    1
    51    77    78    1
    52    81    78    1
    53    78    79    1
    54    29    27   am
    55    28    27    2
    56    27    26    1
    57    79    80    2
    58    42    40    1
    59     5     2    1
    60     5     6    1
    61    41    40    1
    62     2     1    1
    63     2     3    1
    64    26    23    1
    65    40    37    1
    66     3     4    2
    67     6     8    1
    68     6     7    1
    69    21    18    1
    70    16    14    1
    71    18    17    1
    72    18    19    1
    73    37    36    1
    74    37    38    1
    75    25    24    2
    76    23    24    1
    77    23    22    1
    78    24    30   am
    79    34    31    1
    80    34    35    1
    81    31    30    1
    82    31    32    1
    83    14    13    1
    84    39    38    2
    85    20    19    2
    86    33    32    2
    87    13    10    1
    88    13    15    1
    89     9    10    1
    90    10    11    1
    91    11    12    2
