@<TRIPOS>MOLECULE
tmp/2f48A00.pdb
 162 154 0 0 0
SMALL
GASTEIGER

@<TRIPOS>ATOM
      1  N         10.1040   16.2620   42.8950 N.3    78  GLY78      -0.1210
      2  CA        10.5540   16.4630   44.2770 C.3    78  GLY78       0.1956
      3  C         10.1880   15.3010   45.1870 C.2    78  GLY78       0.2612
      4  O          9.9920   14.1760   44.7160 O.2    78  GLY78      -0.2717
      5  N         10.0770   15.5910   46.4850 N.am   79  GLY79      -0.1942
      6  CA         9.6690   14.6150   47.4920 C.3    79  GLY79       0.1998
      7  C          8.2080   14.2360   47.4060 C.2    79  GLY79       0.2480
      8  O          7.3730   15.0580   46.9940 O.2    79  GLY79      -0.2729
      9  N          7.8760   12.9710   47.7470 N.am   80  PRO80      -0.2726
     10  CA         6.4550   12.6060   47.7490 C.3    80  PRO80       0.1402
     11  C          5.5630   13.4030   48.7130 C.2    80  PRO80       0.2269
     12  O          6.0400   13.9840   49.7050 O.2    80  PRO80      -0.2865
     13  CB         6.4630   11.1130   48.1220 C.3    80  PRO80       0.0296
     14  CG         7.8300   10.6160   47.6610 C.3    80  PRO80       0.0237
     15  CD         8.7380   11.8030   48.0350 C.3    80  PRO80       0.0939
     16  N         14.4980   15.3590   41.4380 N.3   143  ARG143     -0.1245
     17  CA        14.5940   16.8020   41.7150 C.3   143  ARG143      0.1563
     18  C         15.3590   17.6150   40.6710 C.2   143  ARG143      0.2260
     19  O         15.8850   18.6770   40.9900 O.2   143  ARG143     -0.2867
     20  CB        15.2300   17.0320   43.0930 C.3   143  ARG143      0.0307
     21  CG        14.3320   16.7200   44.2750 C.3   143  ARG143      0.0489
     22  CD        15.1160   16.8100   45.6080 C.3   143  ARG143      0.2205
     23  NE        14.3680   16.3400   46.7860 N.pl3 143  ARG143     -0.0865
     24  CZ        13.2540   16.9080   47.2460 C.cat 143  ARG143      0.5346
     25  NH1       12.7270   17.9460   46.6180 N.pl3 143  ARG143      0.1354
     26  NH2       12.6600   16.4370   48.3290 N.pl3 143  ARG143      0.1354
     27  N          6.5160   20.9450   43.8660 N.3   172  GLY172     -0.1210
     28  CA         6.5780   22.0820   44.8030 C.3   172  GLY172      0.1956
     29  C          6.9900   23.3960   44.1800 C.2   172  GLY172      0.2612
     30  O          6.7680   23.6110   42.9940 O.2   172  GLY172     -0.2717
     31  N          7.6010   24.2700   44.9790 N.am  173  ASP173     -0.1959
     32  CA         8.1680   25.5230   44.4650 C.3   173  ASP173      0.1840
     33  C          9.2680   25.2880   43.4350 C.2   173  ASP173      0.2622
     34  O          9.3300   26.0060   42.4410 O.2   173  ASP173     -0.2715
     35  CB         8.6730   26.4730   45.5910 C.3   173  ASP173      0.1450
     36  CG         9.8610   25.9060   46.3930 C.2   173  ASP173      0.3671
     37  OD1       10.8920   26.6130   46.5480 O.co2 173  ASP173     -0.2456
     38  OD2        9.7740   24.7580   46.8910 O.co2 173  ASP173     -0.2456
     39  N         10.1240   24.2890   43.6780 N.am  174  ASP174     -0.1971
     40  CA        11.1940   23.9380   42.7220 C.3   174  ASP174      0.1709
     41  C         10.5940   23.5060   41.3610 C.2   174  ASP174      0.2293
     42  O         10.9930   24.0150   40.3080 O.2   174  ASP174     -0.2864
     43  CB        12.1460   22.8610   43.2980 C.3   174  ASP174      0.1436
     44  CG        12.8910   23.3250   44.5550 C.2   174  ASP174      0.3671
     45  OD1       13.4490   24.4560   44.5760 O.co2 174  ASP174     -0.2456
     46  OD2       12.9390   22.5450   45.5370 O.co2 174  ASP174     -0.2456
     47  N          1.7570   20.7860   44.8930 N.3   200  LYS200     -0.1231
     48  CA         2.1300   19.6980   45.7920 C.3   200  LYS200      0.1693
     49  C          3.1540   20.1650   46.8240 C.2   200  LYS200      0.2593
     50  O          4.1390   20.8170   46.4740 O.2   200  LYS200     -0.2718
     51  CB         2.7800   18.5520   44.9780 C.3   200  LYS200      0.0285
     52  CG         3.3820   17.3980   45.8380 C.3   200  LYS200      0.0035
     53  CD         4.8140   17.0360   45.4210 C.3   200  LYS200      0.0206
     54  CE         5.8330   17.9170   46.1510 C.3   200  LYS200      0.1093
     55  NZ         7.2340   17.5460   45.8640 N.3   200  LYS200     -0.1314
     56  N          2.9450   19.7990   48.0850 N.am  201  THR201     -0.1939
     57  CA         4.0460   19.6900   49.0560 C.3   201  THR201      0.2028
     58  C          3.5630   19.5410   50.4840 C.2   201  THR201      0.2642
     59  O          2.7070   20.3010   50.9420 O.2   201  THR201     -0.2714
     60  CB         5.1450   20.8300   48.9600 C.3   201  THR201      0.1808
     61  OG1        6.1550   20.5860   49.9510 O.3   201  THR201     -0.2208
     62  CG2        4.5520   22.2250   49.1710 C.3   201  THR201      0.0379
     63  N          4.1350   18.5720   51.2000 N.am  202  ILE202     -0.1963
     64  CA         3.8720   18.4450   52.6410 C.3   202  ILE202      0.1727
     65  C          4.3680   19.6740   53.4290 C.2   202  ILE202      0.2616
     66  O          3.9920   19.8510   54.5770 O.2   202  ILE202     -0.2715
     67  CB         4.5310   17.1720   53.2750 C.3   202  ILE202      0.0290
     68  CG1        6.0770   17.3380   53.3220 C.3   202  ILE202      0.0022
     69  CG2        4.0260   15.8560   52.5640 C.3   202  ILE202      0.0023
     70  CD1        6.8080   16.3340   54.2720 C.3   202  ILE202      0.0001
     71  N          5.2320   20.4880   52.8300 N.am  203  ASP203     -0.1971
     72  CA         5.7860   21.6740   53.5140 C.3   203  ASP203      0.1709
     73  C          4.8680   22.9080   53.5230 C.2   203  ASP203      0.2293
     74  O          5.0920   23.8290   54.3040 O.2   203  ASP203     -0.2864
     75  CB         7.1490   22.0360   52.9410 C.3   203  ASP203      0.1436
     76  CG         8.1640   20.8820   53.0630 C.2   203  ASP203      0.3671
     77  OD1        7.9740   20.0080   53.9440 O.co2 203  ASP203     -0.2456
     78  OD2        9.1530   20.8720   52.2940 O.co2 203  ASP203     -0.2456
     79  N          4.6450   25.3900   51.5100 N.3   205  ASP205     -0.1239
     80  CA         5.3620   26.6520   51.2190 C.3   205  ASP205      0.1674
     81  C          5.0390   27.1230   49.8050 C.2   205  ASP205      0.2266
     82  O          5.7560   27.9290   49.2130 O.2   205  ASP205     -0.2867
     83  CB         6.8860   26.5050   51.4440 C.3   205  ASP205      0.1410
     84  CG         7.4930   25.3390   50.6480 C.2   205  ASP205      0.3668
     85  OD1        6.7650   24.7070   49.8430 O.co2 205  ASP205     -0.2456
     86  OD2        8.6870   25.0580   50.8290 O.co2 205  ASP205     -0.2456
     87  N         10.0350   17.5380   59.4580 N.3   248  MET248     -0.1230
     88  CA        10.1980   18.0320   58.1200 C.3   248  MET248      0.1702
     89  C          9.4030   19.3310   57.9090 C.2   248  MET248      0.2593
     90  O          8.6390   19.7410   58.7690 O.2   248  MET248     -0.2718
     91  CB         9.8130   16.9440   57.1260 C.3   248  MET248      0.0401
     92  CG        11.0370   16.1290   56.6510 C.3   248  MET248      0.0596
     93  SD        10.5470   14.9040   55.4290 S.3   248  MET248     -0.1393
     94  CE        12.1270   14.1650   54.9390 C.3   248  MET248      0.0692
     95  N          9.6090   19.9970   56.7840 N.am  249  GLY249     -0.1942
     96  CA         9.0190   21.3320   56.5880 C.3   249  GLY249      0.2014
     97  C          9.8940   22.1930   55.7040 C.2   249  GLY249      0.2638
     98  O          9.4470   23.2340   55.1860 O.2   249  GLY249     -0.2714
     99  N         11.1280   21.7300   55.5040 N.am  250  ARG250     -0.1977
    100  CA        12.1840   22.4990   54.8330 C.3   250  ARG250      0.1597
    101  C         12.4280   23.8440   55.5370 C.2   250  ARG250      0.2287
    102  O         12.7320   23.8400   56.7290 O.2   250  ARG250     -0.2864
    103  CB        11.9670   22.6310   53.3100 C.3   250  ARG250      0.0334
    104  CG        13.2770   22.8950   52.5310 C.3   250  ARG250      0.0492
    105  CD        13.0470   23.1450   51.0440 C.3   250  ARG250      0.2205
    106  NE        12.6880   21.9170   50.3180 N.pl3 250  ARG250     -0.0865
    107  CZ        13.5630   21.0170   49.8640 C.cat 250  ARG250      0.5346
    108  NH1       14.8590   21.1850   50.0730 N.pl3 250  ARG250      0.1354
    109  NH2       13.1390   19.9340   49.2130 N.pl3 250  ARG250      0.1354
    110  N         13.1600   21.5390   61.1780 N.3   309  GLU309     -0.1245
    111  CA        14.4280   21.2030   60.5250 C.3   309  GLU309      0.1567
    112  C         15.0800   22.4300   59.8900 C.2   309  GLU309      0.2260
    113  O         16.2860   22.4680   59.7320 O.2   309  GLU309     -0.2867
    114  CB        14.2620   20.0680   59.5040 C.3   309  GLU309      0.0388
    115  CG        13.3750   20.3850   58.2790 C.3   309  GLU309      0.1160
    116  CD        13.4190   19.3070   57.1980 C.2   309  GLU309      0.3649
    117  OE1       12.9200   19.5560   56.0740 O.co2 309  GLU309     -0.2457
    118  OE2       13.9760   18.2190   57.4580 O.co2 309  GLU309     -0.2457
    119  N         20.8710   20.6860   52.4570 N.3   385  ASN385     -0.1225
    120  CA        20.2720   19.4700   53.0010 C.3   385  ASN385      0.1785
    121  C         20.0540   19.6360   54.5030 C.2   385  ASN385      0.2597
    122  O         20.9420   19.3280   55.3100 O.2   385  ASN385     -0.2718
    123  CB        21.1290   18.2380   52.6620 C.3   385  ASN385      0.1169
    124  CG        20.4900   16.9320   53.0870 C.2   385  ASN385      0.2627
    125  OD1       19.5270   16.9000   53.8670 O.2   385  ASN385     -0.2716
    126  ND2       21.0560   15.8350   52.6080 N.am  385  ASN385     -0.0877
    127  N         18.8700   20.1460   54.8720 N.am  386  VAL386     -0.1966
    128  CA        18.5600   20.3760   56.2910 C.3   386  VAL386      0.1727
    129  C         18.0390   19.1040   56.9750 C.2   386  VAL386      0.2616
    130  O         18.2230   18.9130   58.1790 O.2   386  VAL386     -0.2715
    131  CB        17.6220   21.6110   56.5430 C.3   386  VAL386      0.0290
    132  CG1       18.2250   22.8970   55.9490 C.3   386  VAL386      0.0023
    133  CG2       16.1950   21.3770   56.0340 C.3   386  VAL386      0.0023
    134  N         17.4150   18.2230   56.1960 N.am  387  SER387     -0.1950
    135  CA        16.9140   16.9520   56.7500 C.3   387  SER387      0.1924
    136  C         17.9990   16.1040   57.3990 C.2   387  SER387      0.2314
    137  O         17.7400   15.4420   58.4180 O.2   387  SER387     -0.2863
    138  CB        16.1560   16.1440   55.7040 C.3   387  SER387      0.2116
    139  OG        14.9330   16.7850   55.4160 O.3   387  SER387     -0.2180
    140  N         10.3430   11.2600   56.7200 N.3   425  TYR425     -0.1241
    141  CA        10.1600   10.2840   55.6290 C.3   425  TYR425      0.1605
    142  C          8.9530    9.3670   55.8310 C.2   425  TYR425      0.2264
    143  O          8.3480    8.9290   54.8550 O.2   425  TYR425     -0.2867
    144  CB        11.4460    9.4380   55.4130 C.3   425  TYR425      0.0534
    145  CG        12.6290   10.2950   55.0030 C.ar  425  TYR425     -0.0201
    146  CD1       13.5890   10.7200   55.9350 C.ar  425  TYR425     -0.0009
    147  CD2       12.7610   10.7120   53.6970 C.ar  425  TYR425     -0.0009
    148  CE1       14.6660   11.5390   55.5380 C.ar  425  TYR425      0.0417
    149  CE2       13.7980   11.5140   53.3020 C.ar  425  TYR425      0.0417
    150  CZ        14.7450   11.9240   54.2020 C.ar  425  TYR425      0.1957
    151  OH        15.7450   12.7360   53.7160 O.3   425  TYR425     -0.2866
    152  N          5.5080   11.0660   54.3040 N.3   428  ARG428     -0.1245
    153  CA         5.4250   11.5530   52.9150 C.3   428  ARG428      0.1563
    154  C          4.6730   10.6470   51.9540 C.2   428  ARG428      0.2260
    155  O          4.0730   11.1300   50.9750 O.2   428  ARG428     -0.2867
    156  CB         6.8130   11.8530   52.3320 C.3   428  ARG428      0.0307
    157  CG         7.7340   12.6780   53.2000 C.3   428  ARG428      0.0489
    158  CD         8.9070   13.2360   52.3730 C.3   428  ARG428      0.2205
    159  NE         9.6960   12.2000   51.6920 N.pl3 428  ARG428     -0.0865
    160  CZ        10.8160   12.4460   51.0080 C.cat 428  ARG428      0.5346
    161  NH1       11.2830   13.6910   50.9200 N.pl3 428  ARG428      0.1354
    162  NH2       11.4710   11.4480   50.4080 N.pl3 428  ARG428      0.1354
@<TRIPOS>BOND
     1    42    41    2
     2    18    19    2
     3    18    17    1
     4    41    40    1
     5    16    17    1
     6    17    20    1
     7    34    33    2
     8    40    43    1
     9    40    39    1
    10     1     2    1
    11    30    29    2
    12    20    21    1
    13    43    44    1
    14    33    39   am
    15    33    32    1
    16    27    28    1
    17    29    28    1
    18    29    31   am
    19    21    22    1
    20     2     3    1
    21    32    31    1
    22    32    35    1
    23    44    45   ar
    24    44    46   ar
    25     4     3    2
    26    47    48    1
    27    51    48    1
    28    51    52    1
    29     3     5   am
    30    53    52    1
    31    53    54    1
    32    35    36    1
    33    22    23    1
    34    48    49    1
    35    55    54    1
    36    36    37   ar
    37    36    38   ar
    38    50    49    2
    39     5     6    1
    40    25    24    1
    41    23    24    2
    42    49    56   am
    43     8     7    2
    44    24    26    1
    45     7     6    1
    46     7     9   am
    47    14    15    1
    48    14    13    1
    49     9    10    1
    50     9    15    1
    51    10    13    1
    52    10    11    1
    53    56    57    1
    54    11    12    2
    55    60    57    1
    56    60    62    1
    57    60    61    1
    58    57    58    1
    59   109   107    1
    60    82    81    2
    61    81    80    1
    62    85    84   ar
    63   107   108    1
    64   107   106    2
    65   106   105    1
    66   162   160    1
    67    58    59    2
    68    58    63   am
    69    84    86   ar
    70    84    83    1
    71   161   160    1
    72   155   154    2
    73   160   159    2
    74   105   104    1
    75    63    64    1
    76    80    83    1
    77    80    79    1
    78   159   158    1
    79   154   153    1
    80    78    76   ar
    81   156   153    1
    82   156   157    1
    83   158   157    1
    84   119   120    1
    85   104   103    1
    86    69    67    1
    87   126   124   am
    88    64    67    1
    89    64    65    1
    90   123   120    1
    91   123   124    1
    92    71    65   am
    93    71    72    1
    94   153   152    1
    95    75    76    1
    96    75    72    1
    97   120   121    1
    98    76    77   ar
    99   124   125    2
   100    67    68    1
   101   149   147   ar
   102   149   150   ar
   103   103   100    1
   104    68    70    1
   105    65    66    2
   106    72    73    1
   107    73    74    2
   108   147   145   ar
   109   151   150    1
   110   150   148   ar
   111   121   127   am
   112   121   122    2
   113   100    99    1
   114   100   101    1
   115   143   142    2
   116   127   128    1
   117    94    93    1
   118   145   144    1
   119   145   146   ar
   120    98    97    2
   121   144   141    1
   122   139   138    1
   123    93    92    1
   124    99    97   am
   125   101   102    2
   126   148   146   ar
   127   141   142    1
   128   141   140    1
   129   138   135    1
   130    97    96    1
   131   132   131    1
   132   133   131    1
   133   117   116   ar
   134   134   135    1
   135   134   129   am
   136   128   131    1
   137   128   129    1
   138    96    95    1
   139    92    91    1
   140   135   136    1
   141    95    89   am
   142   129   130    2
   143    91    88    1
   144   116   118   ar
   145   116   115    1
   146   136   137    2
   147    89    88    1
   148    89    90    2
   149    88    87    1
   150   115   114    1
   151   114   111    1
   152   113   112    2
   153   112   111    1
   154   111   110    1
