@<TRIPOS>MOLECULE
tmp/2f49A00.pdb
 149 148 0 0 0
SMALL
GASTEIGER

@<TRIPOS>ATOM
      1  N         19.1690   54.0580   46.1880 N.3     1  LYS1       -0.1231
      2  CA        19.7990   55.4060   46.2940 C.3     1  LYS1        0.1693
      3  C         21.3220   55.3610   46.3460 C.2     1  LYS1        0.2592
      4  O         21.9890   55.9540   45.5040 O.2     1  LYS1       -0.2718
      5  CB        19.2660   56.1380   47.5270 C.3     1  LYS1        0.0285
      6  CG        17.7950   56.4600   47.4350 C.3     1  LYS1        0.0035
      7  CD        17.3340   57.2820   48.6190 C.3     1  LYS1        0.0206
      8  CE        15.8830   57.6850   48.4560 C.3     1  LYS1        0.1093
      9  NZ        15.4440   58.5250   49.6030 N.3     1  LYS1       -0.1314
     10  N         21.8760   54.6730   47.3390 N.am    2  ARG2       -0.1966
     11  CA        23.3300   54.5790   47.4580 C.3     2  ARG2        0.1729
     12  C         23.8200   53.2600   46.8530 C.2     2  ARG2        0.2616
     13  O         23.7170   52.2020   47.4740 O.2     2  ARG2       -0.2715
     14  CB        23.7570   54.6810   48.9320 C.3     2  ARG2        0.0348
     15  CG        25.2600   54.7340   49.1560 C.3     2  ARG2        0.0492
     16  CD        25.5850   55.1260   50.5860 C.3     2  ARG2        0.2205
     17  NE        27.0170   55.2740   50.8380 N.pl3   2  ARG2       -0.0865
     18  CZ        27.8670   54.2620   50.9920 C.cat   2  ARG2        0.5346
     19  NH1       27.4400   53.0060   50.9160 N.pl3   2  ARG2        0.1354
     20  NH2       29.1460   54.5020   51.2560 N.pl3   2  ARG2        0.1354
     21  N         24.3580   53.3370   45.6390 N.am    3  ILE3       -0.1963
     22  CA        24.8590   52.1530   44.9520 C.3     3  ILE3        0.1727
     23  C         26.3760   52.1260   44.9410 C.2     3  ILE3        0.2616
     24  O         27.0270   53.0780   44.5250 O.2     3  ILE3       -0.2715
     25  CB        24.3520   52.0880   43.4940 C.3     3  ILE3        0.0290
     26  CG1       22.8250   52.0640   43.4790 C.3     3  ILE3        0.0022
     27  CG2       24.9080   50.8420   42.8080 C.3     3  ILE3        0.0023
     28  CD1       22.2380   52.0090   42.0820 C.3     3  ILE3        0.0001
     29  N         26.9380   51.0190   45.3950 N.am    4  VAL4       -0.1963
     30  CA        28.3750   50.9000   45.4390 C.3     4  VAL4        0.1727
     31  C         28.8730   49.8690   44.4440 C.2     4  VAL4        0.2616
     32  O         28.3290   48.7800   44.3490 O.2     4  VAL4       -0.2715
     33  CB        28.8430   50.5090   46.8620 C.3     4  VAL4        0.0290
     34  CG1       30.3800   50.4760   46.9340 C.3     4  VAL4        0.0023
     35  CG2       28.2990   51.5080   47.8570 C.3     4  VAL4        0.0023
     36  N         29.8800   50.2450   43.6690 N.am    5  TYR5       -0.1960
     37  CA        30.4880   49.3260   42.7290 C.3     5  TYR5        0.1771
     38  C         31.9520   49.2780   43.1170 C.2     5  TYR5        0.2620
     39  O         32.6160   50.3130   43.1810 O.2     5  TYR5       -0.2715
     40  CB        30.3750   49.8240   41.2840 C.3     5  TYR5        0.0574
     41  CG        29.1320   49.3820   40.5370 C.ar    5  TYR5       -0.0198
     42  CD1       27.8540   49.7100   40.9950 C.ar    5  TYR5       -0.0009
     43  CD2       29.2350   48.6930   39.3290 C.ar    5  TYR5       -0.0009
     44  CE1       26.7030   49.3640   40.2520 C.ar    5  TYR5        0.0417
     45  CE2       28.1020   48.3430   38.5860 C.ar    5  TYR5        0.0417
     46  CZ        26.8400   48.6840   39.0510 C.ar    5  TYR5        0.1957
     47  OH        25.7270   48.3530   38.3000 O.3     5  TYR5       -0.2866
     48  N         32.4400   48.0770   43.3910 N.am    6  ASN6       -0.1958
     49  CA        33.8340   47.8610   43.7390 C.3     6  ASN6        0.1819
     50  C         34.4520   47.3390   42.4290 C.2     6  ASN6        0.2621
     51  O         34.5230   46.1410   42.1950 O.2     6  ASN6       -0.2715
     52  CB        33.9110   46.8200   44.8640 C.3     6  ASN6        0.1195
     53  CG        35.2770   46.7620   45.5160 C.2     6  ASN6        0.2630
     54  OD1       35.9760   47.7750   45.6120 O.2     6  ASN6       -0.2716
     55  ND2       35.6580   45.5750   45.9960 N.am    6  ASN6       -0.0877
     56  N         34.8870   48.2610   41.5730 N.am    7  ILE7       -0.1963
     57  CA        35.4170   47.8970   40.2560 C.3     7  ILE7        0.1727
     58  C         36.6830   48.6650   39.9390 C.2     7  ILE7        0.2617
     59  O         37.0850   49.5510   40.6920 O.2     7  ILE7       -0.2715
     60  CB        34.3800   48.2200   39.1410 C.3     7  ILE7        0.0290
     61  CG1       34.0100   49.7100   39.1960 C.3     7  ILE7        0.0022
     62  CG2       33.1260   47.3820   39.3290 C.3     7  ILE7        0.0023
     63  CD1       32.9110   50.1430   38.2150 C.3     7  ILE7        0.0001
     64  N         37.2950   48.3160   38.8110 N.am    8  SER8       -0.1936
     65  CA        38.5200   48.9510   38.3510 C.3     8  SER8        0.2055
     66  C         38.3810   50.4670   38.3290 C.2     8  SER8        0.2644
     67  O         37.3460   51.0030   37.9190 O.2     8  SER8       -0.2714
     68  CB        38.8510   48.4690   36.9420 C.3     8  SER8        0.2130
     69  OG        39.9700   49.1690   36.4250 O.3     8  SER8       -0.2179
     70  N         39.4260   51.1600   38.7720 N.am    9  SER9       -0.1935
     71  CA        39.4020   52.6170   38.7570 C.3     9  SER9        0.2055
     72  C         39.4330   53.1250   37.3080 C.2     9  SER9        0.2643
     73  O         39.3550   54.3340   37.0750 O.2     9  SER9       -0.2714
     74  CB        40.5880   53.1940   39.5500 C.3     9  SER9        0.2130
     75  OG        41.8090   52.6090   39.1350 O.3     9  SER9       -0.2179
     76  N         39.5460   52.2080   36.3420 N.am   10  ASP10      -0.1957
     77  CA        39.5500   52.5790   34.9250 C.3    10  ASP10       0.1840
     78  C         38.1400   52.9480   34.4610 C.2    10  ASP10       0.2622
     79  O         37.9600   53.5850   33.4190 O.2    10  ASP10      -0.2715
     80  CB        40.0660   51.4330   34.0500 C.3    10  ASP10       0.1450
     81  CG        41.5760   51.4080   33.9410 C.2    10  ASP10       0.3671
     82  OD1       42.2080   52.4860   34.0340 O.co2  10  ASP10      -0.2456
     83  OD2       42.1360   50.3130   33.7390 O.co2  10  ASP10      -0.2456
     84  N         37.1400   52.5250   35.2270 N.am   11  PHE11      -0.1960
     85  CA        35.7480   52.8240   34.9060 C.3    11  PHE11       0.1771
     86  C         35.2260   53.9460   35.7950 C.2    11  PHE11       0.2619
     87  O         35.6600   54.0910   36.9320 O.2    11  PHE11      -0.2715
     88  CB        34.8550   51.6000   35.1430 C.3    11  PHE11       0.0574
     89  CG        35.0870   50.4840   34.1850 C.ar   11  PHE11      -0.0200
     90  CD1       35.6500   49.2790   34.6160 C.ar   11  PHE11      -0.0042
     91  CD2       34.7380   50.6230   32.8450 C.ar   11  PHE11      -0.0042
     92  CE1       35.8570   48.2300   33.7120 C.ar   11  PHE11      -0.0003
     93  CE2       34.9420   49.5800   31.9440 C.ar   11  PHE11      -0.0003
     94  CZ        35.5030   48.3820   32.3820 C.ar   11  PHE11      -0.0000
     95  N         34.2890   54.7270   35.2710 N.am   12  GLN12      -0.1963
     96  CA        33.6510   55.7910   36.0360 C.3    12  GLN12       0.1733
     97  C         32.1540   55.6410   35.7900 C.2    12  GLN12       0.2616
     98  O         31.6810   55.8180   34.6670 O.2    12  GLN12      -0.2715
     99  CB        34.1100   57.1840   35.5740 C.3    12  GLN12       0.0408
    100  CG        33.5420   58.3040   36.4430 C.3    12  GLN12       0.0908
    101  CD        34.0030   59.6830   36.0090 C.2    12  GLN12       0.2608
    102  OE1       35.2030   59.9870   36.0170 O.2    12  GLN12      -0.2717
    103  NE2       33.0490   60.5300   35.6230 N.am   12  GLN12      -0.0878
    104  N         31.4070   55.2940   36.8280 N.am   13  LEU13      -0.1963
    105  CA        29.9590   55.1240   36.6900 C.3    13  LEU13       0.1728
    106  C         29.3120   56.4110   36.2070 C.2    13  LEU13       0.2616
    107  O         29.6640   57.4820   36.6860 O.2    13  LEU13      -0.2715
    108  CB        29.3470   54.7490   38.0340 C.3    13  LEU13       0.0311
    109  CG        29.7760   53.4210   38.6360 C.3    13  LEU13       0.0022
    110  CD1       29.2320   53.3030   40.0740 C.3    13  LEU13       0.0001
    111  CD2       29.2570   52.2900   37.7440 C.3    13  LEU13       0.0001
    112  N         28.3770   56.3040   35.2640 N.am   14  LYS14      -0.1963
    113  CA        27.6560   57.4610   34.7380 C.3    14  LYS14       0.1728
    114  C         26.2600   57.5170   35.3650 C.2    14  LYS14       0.2617
    115  O         25.9910   58.3780   36.2040 O.2    14  LYS14      -0.2715
    116  CB        27.5350   57.3970   33.2150 C.3    14  LYS14       0.0311
    117  CG        28.8080   57.7700   32.4690 C.3    14  LYS14       0.0038
    118  CD        28.5850   57.8260   30.9480 C.3    14  LYS14       0.0206
    119  CE        27.5660   58.8950   30.5700 C.3    14  LYS14       0.1093
    120  NZ        27.4090   59.0270   29.1000 N.3    14  LYS14      -0.1314
    121  N         25.3650   56.6140   34.9740 N.am   15  SER15      -0.1936
    122  CA        24.0370   56.6220   35.5760 C.3    15  SER15       0.2055
    123  C         23.4170   55.2600   35.7820 C.2    15  SER15       0.2642
    124  O         23.7670   54.2940   35.1150 O.2    15  SER15      -0.2714
    125  CB        23.0660   57.4970   34.7730 C.3    15  SER15       0.2130
    126  OG        23.3300   57.4210   33.3960 O.3    15  SER15      -0.2179
    127  N         22.4900   55.2150   36.7330 N.am   16  LEU16      -0.1977
    128  CA        21.7510   54.0130   37.0890 C.3    16  LEU16       0.1596
    129  C         20.8060   53.7350   35.9380 C.2    16  LEU16       0.2287
    130  O         20.0100   54.5920   35.5740 O.2    16  LEU16      -0.2864
    131  CB        20.9410   54.2660   38.3610 C.3    16  LEU16       0.0297
    132  CG        20.7550   53.1290   39.3640 C.3    16  LEU16       0.0022
    133  CD1       19.5320   53.4370   40.2210 C.3    16  LEU16       0.0001
    134  CD2       20.5830   51.7960   38.6570 C.3    16  LEU16       0.0001
    135  N         24.4510   49.8120   35.5340 N.3    26  CYS26      -0.1235
    136  CA        24.7850   51.2090   35.3270 C.3    26  CYS26       0.1677
    137  C         25.5800   51.3890   34.0440 C.2    26  CYS26       0.2270
    138  O         26.2830   50.4800   33.6200 O.2    26  CYS26      -0.2867
    139  CB        25.6470   51.7220   36.4830 C.3    26  CYS26       0.0956
    140  SG        24.8200   51.8340   38.1010 S.3    26  CYS26      -0.0801
    141  N         34.5870   40.7900   35.9310 N.3    76  GLN76      -0.1245
    142  CA        35.5960   41.0440   36.9390 C.3    76  GLN76       0.1566
    143  C         36.0650   39.7250   37.5690 C.2    76  GLN76       0.2260
    144  O         35.2490   38.8670   37.9060 O.2    76  GLN76      -0.2867
    145  CB        35.0350   41.9480   38.0420 C.3    76  GLN76       0.0367
    146  CG        36.0900   42.3880   39.0640 C.3    76  GLN76       0.0905
    147  CD        35.5090   43.2380   40.1860 C.2    76  GLN76       0.2608
    148  OE1       35.0700   42.7240   41.2190 O.2    76  GLN76      -0.2717
    149  NE2       35.4870   44.5420   39.9760 N.am   76  GLN76      -0.0878
@<TRIPOS>BOND
     1   120   119    1
     2   119   118    1
     3   118   117    1
     4    93    94   ar
     5    93    91   ar
     6    94    92   ar
     7   117   116    1
     8    91    89   ar
     9   116   113    1
    10   126   125    1
    11    79    78    2
    12   138   137    2
    13    92    90   ar
    14    83    81   ar
    15    81    82   ar
    16    81    80    1
    17   137   136    1
    18    80    77    1
    19    89    90   ar
    20    89    88    1
    21    78    77    1
    22    78    84   am
    23    98    97    2
    24   113   112    1
    25   113   114    1
    26   125   122    1
    27    85    88    1
    28    85    84    1
    29    85    86    1
    30    77    76    1
    31   121   114   am
    32   121   122    1
    33   124   123    2
    34   112   106   am
    35    95    86   am
    36    95    96    1
    37   136   135    1
    38   136   139    1
    39   114   115    2
    40    99    96    1
    41    99   100    1
    42   130   129    2
    43   122   123    1
    44   103   101   am
    45   123   127   am
    46    97    96    1
    47    97   104   am
    48    86    87    2
    49   141   142    1
    50   129   128    1
    51   101   102    2
    52   101   100    1
    53   106   107    2
    54   106   105    1
    55    76    72   am
    56    69    68    1
    57   139   140    1
    58   105   104    1
    59   105   108    1
    60   127   128    1
    61   142   143    1
    62   142   145    1
    63    68    65    1
    64    73    72    2
    65   128   131    1
    66    72    71    1
    67   143   144    2
    68   111   109    1
    69    67    66    2
    70   108   109    1
    71   145   146    1
    72    63    61    1
    73    47    46    1
    74    66    65    1
    75    66    70   am
    76    65    64    1
    77   131   132    1
    78    45    46   ar
    79    45    43   ar
    80   109   110    1
    81   134   132    1
    82    71    70    1
    83    71    74    1
    84    64    58   am
    85    46    44   ar
    86   146   147    1
    87    75    74    1
    88    60    61    1
    89    60    62    1
    90    60    57    1
    91    43    41   ar
    92   132   133    1
    93    58    57    1
    94    58    59    2
    95   149   147   am
    96   147   148    2
    97    44    42   ar
    98    57    56    1
    99    41    42   ar
   100    41    40    1
   101    40    37    1
   102    56    50   am
   103    28    26    1
   104    51    50    2
   105    50    49    1
   106    37    38    1
   107    37    36    1
   108    27    25    1
   109    38    39    2
   110    38    48   am
   111    48    49    1
   112    26    25    1
   113    25    22    1
   114    36    31   am
   115    49    52    1
   116    32    31    2
   117    31    30    1
   118    24    23    2
   119    52    53    1
   120    23    22    1
   121    23    29   am
   122    22    21    1
   123    29    30    1
   124    30    33    1
   125     4     3    2
   126    53    54    2
   127    53    55   am
   128    21    12   am
   129     1     2    1
   130     2     3    1
   131     2     5    1
   132     3    10   am
   133    12    11    1
   134    12    13    2
   135    33    34    1
   136    33    35    1
   137    10    11    1
   138     6     5    1
   139     6     7    1
   140    11    14    1
   141     8     7    1
   142     8     9    1
   143    14    15    1
   144    15    16    1
   145    16    17    1
   146    17    18    2
   147    19    18    1
   148    18    20    1
