@<TRIPOS>MOLECULE
tmp/2f4oA00.pdb
 151 149 0 0 0
SMALL
GASTEIGER

@<TRIPOS>ATOM
      1  N        -19.0990   10.6500  -34.5880 N.3    78  TRP78      -0.1241
      2  CA       -19.0770    9.2540  -34.9190 C.3    78  TRP78       0.1605
      3  C        -17.9180    8.9890  -35.8710 C.2    78  TRP78       0.2264
      4  O        -17.7710    9.6610  -36.8340 O.2    78  TRP78      -0.2867
      5  CB       -20.4150    8.7730  -35.5110 C.3    78  TRP78       0.0550
      6  CG       -20.3260    7.3580  -35.9080 C.ar   78  TRP78       0.0003
      7  CD1      -19.9370    6.8610  -37.1400 C.ar   78  TRP78       0.0946
      8  CD2      -20.5410    6.2290  -35.0750 C.ar   78  TRP78       0.0152
      9  NE1      -19.9460    5.4720  -37.1130 N.ar   78  TRP78      -0.2442
     10  CE2      -20.2960    5.0680  -35.8550 C.ar   78  TRP78       0.0810
     11  CE3      -20.9450    6.0720  -33.7560 C.ar   78  TRP78       0.0012
     12  CZ2      -20.4490    3.7920  -35.3450 C.ar   78  TRP78       0.0191
     13  CZ3      -21.0760    4.8110  -33.2650 C.ar   78  TRP78       0.0001
     14  CH2      -20.8250    3.6810  -34.0560 C.ar   78  TRP78       0.0015
     15  N         -5.8470   -1.1150  -28.2270 N.3   111  ASN111     -0.1240
     16  CA        -5.9640   -1.3640  -29.6580 C.3   111  ASN111      0.1653
     17  C         -5.9540    0.0120  -30.3320 C.2   111  ASN111      0.2266
     18  O         -6.6340    0.9300  -29.8760 O.2   111  ASN111     -0.2867
     19  CB        -7.2760   -2.1070  -30.0200 C.3   111  ASN111      0.1155
     20  CG        -7.7770   -3.1030  -28.9120 C.2   111  ASN111      0.2627
     21  OD1       -8.9720   -3.4120  -28.8640 O.2   111  ASN111     -0.2716
     22  ND2       -6.8750   -3.6040  -28.0560 N.am  111  ASN111     -0.0877
     23  N         -6.2000    1.6040  -34.3820 N.3   113  GLU113     -0.1245
     24  CA        -6.6260    1.1180  -35.6950 C.3   113  GLU113      0.1567
     25  C         -5.8270    1.8000  -36.7850 C.2   113  GLU113      0.2260
     26  O         -5.4810    2.9650  -36.6830 O.2   113  GLU113     -0.2867
     27  CB        -8.1420    1.2910  -35.9310 C.3   113  GLU113      0.0388
     28  CG        -9.0210    0.3400  -35.1280 C.3   113  GLU113      0.1160
     29  CD       -10.5230    0.4780  -35.4470 C.2   113  GLU113      0.3649
     30  OE1      -11.3570   -0.1160  -34.7300 O.co2 113  GLU113     -0.2457
     31  OE2      -10.8710    1.1680  -36.4200 O.co2 113  GLU113     -0.2457
     32  N         -7.9790    3.6870  -29.5660 N.3   128  ARG128     -0.1231
     33  CA        -9.2410    3.2970  -28.9280 C.3   128  ARG128      0.1694
     34  C         -9.1540    3.4640  -27.4150 C.2   128  ARG128      0.2592
     35  O         -8.9600    2.4990  -26.6550 O.2   128  ARG128     -0.2718
     36  CB        -9.6520    1.9030  -29.3840 C.3   128  ARG128      0.0321
     37  CG        -9.8820    1.8940  -30.9020 C.3   128  ARG128      0.0489
     38  CD       -11.2810    2.4280  -31.2740 C.3   128  ARG128      0.2205
     39  NE       -12.1430    1.2600  -31.4350 N.pl3 128  ARG128     -0.0865
     40  CZ       -13.4280    1.1600  -31.1610 C.cat 128  ARG128      0.5346
     41  NH1      -14.1640    2.1570  -30.7030 N.pl3 128  ARG128      0.1354
     42  NH2      -13.9780   -0.0010  -31.3720 N.pl3 128  ARG128      0.1354
     43  N         -9.3110    4.7310  -27.0210 N.am  129  TYR129     -0.1962
     44  CA        -9.0970    5.2050  -25.6700 C.3   129  TYR129      0.1771
     45  C        -10.2170    4.7650  -24.7700 C.2   129  TYR129      0.2619
     46  O        -11.3690    5.1250  -24.9970 O.2   129  TYR129     -0.2715
     47  CB        -9.0600    6.7290  -25.6310 C.3   129  TYR129      0.0574
     48  CG        -7.9190    7.3500  -26.3830 C.ar  129  TYR129     -0.0198
     49  CD1       -8.1550    8.2080  -27.4460 C.ar  129  TYR129     -0.0009
     50  CD2       -6.5880    7.0800  -26.0340 C.ar  129  TYR129     -0.0009
     51  CE1       -7.1190    8.7660  -28.1470 C.ar  129  TYR129      0.0417
     52  CE2       -5.5460    7.6450  -26.7290 C.ar  129  TYR129      0.0417
     53  CZ        -5.8110    8.5040  -27.7830 C.ar  129  TYR129      0.1957
     54  OH        -4.7810    9.1100  -28.4890 O.3   129  TYR129     -0.2866
     55  N         -9.8530    3.9690  -23.7680 N.am  130  ASN130     -0.1972
     56  CA       -10.6820    3.6340  -22.6280 C.3   130  ASN130      0.1688
     57  C        -10.8500    4.7890  -21.6330 C.2   130  ASN130      0.2292
     58  O        -11.8330    4.8100  -20.8930 O.2   130  ASN130     -0.2864
     59  CB       -10.0510    2.4480  -21.8830 C.3   130  ASN130      0.1181
     60  CG       -10.2810    1.1210  -22.5890 C.2   130  ASN130      0.2629
     61  OD1      -11.4340    0.7070  -22.8060 O.2   130  ASN130     -0.2716
     62  ND2       -9.1880    0.4310  -22.9280 N.am  130  ASN130     -0.0877
     63  N        -16.7430    5.3460  -31.5040 N.3   142  ARG142     -0.1231
     64  CA       -17.9120    4.5570  -31.7560 C.3   142  ARG142      0.1694
     65  C        -18.6470    4.3030  -30.4560 C.2   142  ARG142      0.2592
     66  O        -18.5230    5.0840  -29.5210 O.2   142  ARG142     -0.2718
     67  CB       -17.5040    3.2900  -32.4980 C.3   142  ARG142      0.0321
     68  CG       -16.8280    3.6220  -33.8320 C.3   142  ARG142      0.0489
     69  CD       -16.8200    2.4470  -34.8220 C.3   142  ARG142      0.2205
     70  NE       -15.7620    2.6770  -35.8050 N.pl3 142  ARG142     -0.0865
     71  CZ       -14.5710    2.0850  -35.8100 C.cat 142  ARG142      0.5346
     72  NH1      -14.2520    1.1460  -34.9360 N.pl3 142  ARG142      0.1354
     73  NH2      -13.6910    2.4110  -36.7410 N.pl3 142  ARG142      0.1354
     74  N        -19.4300    3.2370  -30.3780 N.am  143  CYS143     -0.1956
     75  CA       -20.3440    3.1280  -29.2760 C.3   143  CYS143      0.1843
     76  C        -19.6060    3.0970  -27.9370 C.2   143  CYS143      0.2626
     77  O        -20.0980    3.6470  -26.9540 O.2   143  CYS143     -0.2714
     78  CB       -21.2230    1.8930  -29.4260 C.3   143  CYS143      0.0997
     79  SG       -20.7040    0.2790  -28.8520 S.3   143  CYS143     -0.0797
     80  N        -18.4230    2.4770  -27.8970 N.am  144  GLY144     -0.1940
     81  CA       -17.6220    2.4240  -26.6740 C.3   144  GLY144      0.2014
     82  C        -17.3210    3.8030  -26.1220 C.2   144  GLY144      0.2638
     83  O        -17.6250    4.0970  -24.9570 O.2   144  GLY144     -0.2714
     84  N        -16.7260    4.6430  -26.9700 N.am  145  GLU145     -0.1977
     85  CA       -16.3210    6.0050  -26.6000 C.3   145  GLU145      0.1602
     86  C        -17.5240    6.8900  -26.2820 C.2   145  GLU145      0.2287
     87  O        -17.4930    7.6900  -25.3480 O.2   145  GLU145     -0.2864
     88  CB       -15.5020    6.6560  -27.7130 C.3   145  GLU145      0.0415
     89  CG       -14.0970    6.1070  -27.8910 C.3   145  GLU145      0.1163
     90  CD       -14.0030    5.0670  -29.0150 C.2   145  GLU145      0.3649
     91  OE1      -15.0390    4.4970  -29.4360 O.co2 145  GLU145     -0.2457
     92  OE2      -12.8840    4.8150  -29.4890 O.co2 145  GLU145     -0.2457
     93  N        -19.2150    5.5320  -22.9020 N.3   148  ASN148     -0.1240
     94  CA       -18.1920    5.7960  -21.8930 C.3   148  ASN148      0.1653
     95  C        -18.0760    7.2680  -21.5200 C.2   148  ASN148      0.2266
     96  O        -17.8570    7.6310  -20.3400 O.2   148  ASN148     -0.2867
     97  CB       -16.8290    5.3260  -22.4270 C.3   148  ASN148      0.1155
     98  CG       -15.7130    5.4130  -21.4050 C.2   148  ASN148      0.2627
     99  OD1      -15.9370    5.6610  -20.2110 O.2   148  ASN148     -0.2716
    100  ND2      -14.5020    5.1950  -21.8600 N.am  148  ASN148     -0.0877
    101  N        -23.1850    2.3200  -16.7610 N.3   163  TYR163     -0.1241
    102  CA       -22.5780    1.8390  -17.9830 C.3   163  TYR163      0.1605
    103  C        -23.1430    0.4390  -18.2520 C.2   163  TYR163      0.2264
    104  O        -23.0370   -0.4880  -17.4110 O.2   163  TYR163     -0.2867
    105  CB       -21.0580    1.7500  -17.8060 C.3   163  TYR163      0.0534
    106  CG       -20.2660    1.3620  -19.0480 C.ar  163  TYR163     -0.0201
    107  CD1      -19.9910    2.2940  -20.0360 C.ar  163  TYR163     -0.0009
    108  CD2      -19.7970    0.0510  -19.2390 C.ar  163  TYR163     -0.0009
    109  CE1      -19.2760    1.9340  -21.1740 C.ar  163  TYR163      0.0417
    110  CE2      -19.0940   -0.3020  -20.3310 C.ar  163  TYR163      0.0417
    111  CZ       -18.8240    0.6350  -21.3040 C.ar  163  TYR163      0.1957
    112  OH       -18.0900    0.2960  -22.4390 O.3   163  TYR163     -0.2866
    113  N        -23.1120   -2.8500  -20.5750 N.3   165  TRP165     -0.1241
    114  CA       -22.3580   -3.6960  -21.4680 C.3   165  TRP165      0.1605
    115  C        -23.1810   -4.8570  -22.0560 C.2   165  TRP165      0.2264
    116  O        -23.5930   -5.7620  -21.3360 O.2   165  TRP165     -0.2867
    117  CB       -21.1750   -4.2700  -20.6820 C.3   165  TRP165      0.0550
    118  CG       -20.3130   -5.1000  -21.4760 C.ar  165  TRP165      0.0003
    119  CD1      -19.4110   -4.6820  -22.4090 C.ar  165  TRP165      0.0946
    120  CD2      -20.2840   -6.5200  -21.4920 C.ar  165  TRP165      0.0152
    121  NE1      -18.7790   -5.7690  -22.9820 N.ar  165  TRP165     -0.2442
    122  CE2      -19.3170   -6.9090  -22.4520 C.ar  165  TRP165      0.0810
    123  CE3      -20.9890   -7.5000  -20.8120 C.ar  165  TRP165      0.0012
    124  CZ2      -19.0050   -8.2460  -22.7100 C.ar  165  TRP165      0.0191
    125  CZ3      -20.6860   -8.8240  -21.0710 C.ar  165  TRP165      0.0001
    126  CH2      -19.6860   -9.1860  -22.0230 C.ar  165  TRP165      0.0015
    127  N        -21.4100   -6.9280  -28.3690 N.3   169  ASP169     -0.1225
    128  CA       -20.6960   -5.7090  -28.7770 C.3   169  ASP169      0.1805
    129  C        -21.4980   -4.4410  -29.1130 C.2   169  ASP169      0.2598
    130  O        -21.2090   -3.7780  -30.0880 O.2   169  ASP169     -0.2718
    131  CB       -19.7470   -5.9570  -29.9330 C.3   169  ASP169      0.1424
    132  CG       -18.7120   -4.8560  -30.0480 C.2   169  ASP169      0.3668
    133  OD1      -18.4900   -4.2540  -31.1380 O.co2 169  ASP169     -0.2456
    134  OD2      -18.1130   -4.5930  -28.9940 O.co2 169  ASP169     -0.2456
    135  N        -22.4360   -4.0860  -28.2610 N.am  170  HIS170     -0.1961
    136  CA       -22.9010   -2.7100  -28.1670 C.3   170  HIS170      0.1787
    137  C        -22.8470   -2.3050  -26.6710 C.2   170  HIS170      0.2620
    138  O        -22.8180   -3.1590  -25.7650 O.2   170  HIS170     -0.2715
    139  CB       -24.2880   -2.5080  -28.8550 C.3   170  HIS170      0.0785
    140  CG       -24.6650   -1.0580  -29.0650 C.ar  170  HIS170      0.0821
    141  ND1      -23.8860   -0.1870  -29.7820 N.ar  170  HIS170     -0.2267
    142  CD2      -25.7110   -0.3210  -28.6040 C.ar  170  HIS170      0.1154
    143  CE1      -24.4350    1.0160  -29.7790 C.ar  170  HIS170      0.1986
    144  NE2      -25.5390    0.9720  -29.0550 N.ar  170  HIS170     -0.2212
    145  N        -22.7490   -1.0100  -26.4070 N.am  171  VAL171     -0.1977
    146  CA       -22.7630   -0.5340  -25.0350 C.3   171  VAL171      0.1596
    147  C        -23.6280    0.7320  -24.9740 C.2   171  VAL171      0.2287
    148  O        -23.8340    1.4150  -25.9790 O.2   171  VAL171     -0.2864
    149  CB       -21.2930   -0.3010  -24.4430 C.3   171  VAL171      0.0276
    150  CG1      -20.4430   -1.5950  -24.5040 C.3   171  VAL171      0.0022
    151  CG2      -20.5640    0.7840  -25.1260 C.3   171  VAL171      0.0022
@<TRIPOS>BOND
     1     7     9   ar
     2     7     6   ar
     3     9    10   ar
     4     4     3    2
     5    25    26    2
     6    25    24    1
     7    73    71    1
     8    31    29   ar
     9    27    24    1
    10    27    28    1
    11     6     5    1
    12     6     8   ar
    13     3     2    1
    14    10    12   ar
    15    10     8   ar
    16    71    70    2
    17    71    72    1
    18    70    69    1
    19    24    23    1
    20     5     2    1
    21    29    28    1
    22    29    30   ar
    23    12    14   ar
    24     8    11   ar
    25     2     1    1
    26    69    68    1
    27    14    13   ar
    28    68    67    1
    29    11    13   ar
    30    67    64    1
    31    64    63    1
    32    64    65    1
    33    39    38    1
    34    39    40    2
    35    42    40    1
    36    38    37    1
    37    40    41    1
    38   133   132   ar
    39    37    36    1
    40    65    74   am
    41    65    66    2
    42    74    75    1
    43    17    18    2
    44    17    16    1
    45   130   129    2
    46   132   131    1
    47   132   134   ar
    48    19    16    1
    49    19    20    1
    50   131   128    1
    51   141   143   ar
    52   141   140   ar
    53   143   144   ar
    54    16    15    1
    55    32    33    1
    56    92    90   ar
    57    91    90   ar
    58    78    75    1
    59    78    79    1
    60    36    33    1
    61    75    76    1
    62   129   128    1
    63   129   135   am
    64   140   139    1
    65   140   142   ar
    66   144   142   ar
    67    90    89    1
    68    33    34    1
    69    20    21    2
    70    20    22   am
    71   139   136    1
    72   128   127    1
    73    54    53    1
    74   135   136    1
    75   136   137    1
    76    51    53   ar
    77    51    49   ar
    78    76    80   am
    79    76    77    2
    80    80    81    1
    81    89    88    1
    82    53    52   ar
    83    88    85    1
    84    49    48   ar
    85    34    43   am
    86    34    35    2
    87    43    44    1
    88    84    85    1
    89    84    82   am
    90    52    50   ar
    91    81    82    1
    92   137   145   am
    93   137   138    2
    94    85    86    1
    95   145   146    1
    96    48    50   ar
    97    48    47    1
    98    86    87    2
    99    82    83    2
   100   148   147    2
   101    44    47    1
   102    44    45    1
   103   151   149    1
   104   146   147    1
   105   146   149    1
   106    46    45    2
   107    45    55   am
   108   150   149    1
   109    55    56    1
   110   121   122   ar
   111   121   119   ar
   112    62    60   am
   113    93    94    1
   114    61    60    2
   115   124   122   ar
   116   124   126   ar
   117    56    59    1
   118    56    57    1
   119    60    59    1
   120   122   120   ar
   121   112   111    1
   122    97    94    1
   123    97    98    1
   124   119   118   ar
   125   115   114    1
   126   115   116    2
   127   126   125   ar
   128    94    95    1
   129   100    98   am
   130    57    58    2
   131    95    96    2
   132   120   118   ar
   133   120   123   ar
   134   118   117    1
   135   114   117    1
   136   114   113    1
   137    98    99    2
   138   111   109   ar
   139   111   110   ar
   140   109   107   ar
   141   125   123   ar
   142   110   108   ar
   143   107   106   ar
   144   108   106   ar
   145   106   105    1
   146   103   102    1
   147   103   104    2
   148   102   105    1
   149   102   101    1
