@<TRIPOS>MOLECULE
tmp/2f4pC00.pdb
 119 114 0 0 0
SMALL
GASTEIGER

@<TRIPOS>ATOM
      1  N         23.0910   86.1100    4.8890 N.3    15  PHE15      -0.1241
      2  CA        23.6110   87.1390    5.7850 C.3    15  PHE15       0.1605
      3  C         22.6750   88.3200    5.8860 C.2    15  PHE15       0.2264
      4  O         22.0220   88.6960    4.9020 O.2    15  PHE15      -0.2867
      5  CB        24.9540   87.6820    5.2650 C.3    15  PHE15       0.0534
      6  CG        26.0170   86.6620    5.0980 C.ar   15  PHE15      -0.0203
      7  CD1       26.8030   86.2690    6.1810 C.ar   15  PHE15      -0.0042
      8  CD2       26.2850   86.1190    3.8520 C.ar   15  PHE15      -0.0042
      9  CE1       27.8100   85.3280    6.0310 C.ar   15  PHE15      -0.0003
     10  CE2       27.2790   85.1790    3.6870 C.ar   15  PHE15      -0.0003
     11  CZ        28.0630   84.7800    4.7830 C.ar   15  PHE15      -0.0000
     12  N         33.3590   87.9760    2.3320 N.3    21  VAL21      -0.1245
     13  CA        33.9400   86.6450    2.4950 C.3    21  VAL21       0.1561
     14  C         35.0750   86.4400    1.5080 C.2    21  VAL21       0.2260
     15  O         34.9150   86.6780    0.3050 O.2    21  VAL21      -0.2867
     16  CB        32.8800   85.5630    2.2380 C.3    21  VAL21       0.0252
     17  CG1       33.4620   84.1750    2.5010 C.3    21  VAL21       0.0019
     18  CG2       31.6500   85.8110    3.1110 C.3    21  VAL21       0.0019
     19  N         38.0310   80.0980    5.2990 N.3    36  TYR36      -0.1241
     20  CA        37.6090   81.3940    4.8110 C.3    36  TYR36       0.1605
     21  C         38.0280   82.4780    5.8150 C.2    36  TYR36       0.2264
     22  O         38.3530   82.1990    6.9710 O.2    36  TYR36      -0.2867
     23  CB        36.0770   81.4160    4.5570 C.3    36  TYR36       0.0534
     24  CG        35.1980   81.2110    5.7870 C.ar   36  TYR36      -0.0201
     25  CD1       34.8700   82.2730    6.6060 C.ar   36  TYR36      -0.0009
     26  CD2       34.7290   79.9410    6.1410 C.ar   36  TYR36      -0.0009
     27  CE1       34.0890   82.1010    7.7480 C.ar   36  TYR36       0.0417
     28  CE2       33.9510   79.7520    7.2850 C.ar   36  TYR36       0.0417
     29  CZ        33.6310   80.8430    8.0870 C.ar   36  TYR36       0.1957
     30  OH        32.8440   80.6890    9.2310 O.3    36  TYR36      -0.2866
     31  N         36.3880   86.2570    7.0070 N.3    38  VAL38      -0.1245
     32  CA        35.1320   87.0060    6.9340 C.3    38  VAL38       0.1561
     33  C         35.2240   88.3190    7.6950 C.2    38  VAL38       0.2260
     34  O         35.7910   88.3710    8.7780 O.2    38  VAL38      -0.2867
     35  CB        33.9260   86.1480    7.4230 C.3    38  VAL38       0.0252
     36  CG1       34.0650   85.7680    8.8690 C.3    38  VAL38       0.0019
     37  CG2       32.6090   86.8890    7.2090 C.3    38  VAL38       0.0019
     38  N         32.5440   91.1640    9.0270 N.3    40  PHE40      -0.1241
     39  CA        31.1920   91.6660    9.3110 C.3    40  PHE40       0.1605
     40  C         31.2920   93.1380    9.6670 C.2    40  PHE40       0.2264
     41  O         31.9700   93.5190   10.6380 O.2    40  PHE40      -0.2867
     42  CB        30.5520   90.9510   10.5160 C.3    40  PHE40       0.0534
     43  CG        30.3720   89.4830   10.3410 C.ar   40  PHE40      -0.0203
     44  CD1       31.3530   88.6080   10.7430 C.ar   40  PHE40      -0.0042
     45  CD2       29.2170   88.9660    9.7850 C.ar   40  PHE40      -0.0042
     46  CE1       31.1970   87.2460   10.5920 C.ar   40  PHE40      -0.0003
     47  CE2       29.0700   87.5920    9.6140 C.ar   40  PHE40      -0.0003
     48  CZ        30.0660   86.7400   10.0320 C.ar   40  PHE40      -0.0000
     49  N         25.4020   86.3490   10.2140 N.3    46  THR46      -0.1218
     50  CA        24.8470   85.2330    9.4870 C.3    46  THR46       0.1862
     51  C         23.3720   85.0700    9.8690 C.2    46  THR46       0.2287
     52  O         22.9210   85.5660   10.8900 O.2    46  THR46      -0.2866
     53  CB        25.6000   83.9210    9.7980 C.3    46  THR46       0.1770
     54  OG1       25.2830   83.4860   11.1280 O.3    46  THR46      -0.2211
     55  CG2       27.1070   84.0990    9.6550 C.3    46  THR46       0.0375
     56  N         22.1070   78.9120   11.1140 N.3    49  HIS49      -0.1241
     57  CA        22.4330   77.7750   10.2860 C.3    49  HIS49       0.1621
     58  C         23.1670   76.7150   11.0900 C.2    49  HIS49       0.2264
     59  O         23.5150   76.9250   12.2500 O.2    49  HIS49      -0.2867
     60  CB        23.2740   78.2240    9.0970 C.3    49  HIS49       0.0745
     61  CG        24.6000   78.8140    9.4730 C.ar   49  HIS49       0.0817
     62  ND1       24.7190   79.9820   10.1930 N.ar   49  HIS49      -0.2268
     63  CD2       25.8690   78.3930    9.2290 C.ar   49  HIS49       0.1154
     64  CE1       26.0000   80.2700   10.3580 C.ar   49  HIS49       0.1986
     65  NE2       26.7160   79.3220    9.7840 N.ar   49  HIS49      -0.2212
     66  N         26.1940   73.2610   10.4290 N.3    51  HIS51      -0.1241
     67  CA        27.0730   72.4810    9.5810 C.3    51  HIS51       0.1621
     68  C         27.1610   71.0820   10.1330 C.2    51  HIS51       0.2264
     69  O         27.4250   70.9190   11.3370 O.2    51  HIS51      -0.2867
     70  CB        28.4750   73.0530    9.6290 C.3    51  HIS51       0.0745
     71  CG        28.6190   74.3440    8.9140 C.ar   51  HIS51       0.0817
     72  ND1       28.9170   74.4090    7.5690 N.ar   51  HIS51      -0.2268
     73  CD2       28.5340   75.6220    9.3530 C.ar   51  HIS51       0.1154
     74  CE1       29.0070   75.6800    7.2130 C.ar   51  HIS51       0.1986
     75  NE2       28.7680   76.4350    8.2720 N.ar   51  HIS51      -0.2212
     76  N         32.7400   73.3850   13.0260 N.3    55  GLN55      -0.1245
     77  CA        33.4230   74.6170   12.5710 C.3    55  GLN55       0.1566
     78  C         34.2900   75.2430   13.6690 C.2    55  GLN55       0.2260
     79  O         33.9540   75.1810   14.8660 O.2    55  GLN55      -0.2867
     80  CB        32.4400   75.6930   12.1610 C.3    55  GLN55       0.0367
     81  CG        31.2670   75.2050   11.4060 C.3    55  GLN55       0.0905
     82  CD        31.6770   74.6970   10.0740 C.2    55  GLN55       0.2608
     83  OE1       31.8770   75.4880    9.1440 O.2    55  GLN55      -0.2717
     84  NE2       31.8420   73.3660    9.9610 N.am   55  GLN55      -0.0878
     85  N         26.7070   83.8360   14.0320 N.3    92  HIS92      -0.1241
     86  CA        27.7670   84.7290   14.4880 C.3    92  HIS92       0.1621
     87  C         27.7300   85.9890   13.6340 C.2    92  HIS92       0.2264
     88  O         27.1400   86.0030   12.5390 O.2    92  HIS92      -0.2867
     89  CB        29.1670   84.0870   14.4490 C.3    92  HIS92       0.0745
     90  CG        29.4970   83.3430   13.1900 C.ar   92  HIS92       0.0817
     91  ND1       30.4480   83.7900   12.2880 N.ar   92  HIS92      -0.2268
     92  CD2       29.0670   82.1480   12.7160 C.ar   92  HIS92       0.1154
     93  CE1       30.5490   82.9250   11.2960 C.ar   92  HIS92       0.1986
     94  NE2       29.7240   81.9170   11.5300 N.ar   92  HIS92      -0.2212
     95  N         35.9700   75.1830    8.2030 N.3   106  SER106     -0.1217
     96  CA        34.9110   74.1650    8.1190 C.3   106  SER106      0.1889
     97  C         35.5410   72.7930    8.0490 C.2   106  SER106      0.2288
     98  O         36.3280   72.5090    7.1350 O.2   106  SER106     -0.2866
     99  CB        34.0450   74.3950    6.8910 C.3   106  SER106      0.2089
    100  OG        33.3960   75.6410    6.9860 O.3   106  SER106     -0.2183
    101  N         26.2990   73.4470    4.7130 N.3   114  ALA114     -0.1245
    102  CA        25.5270   74.1420    5.7160 C.3   114  ALA114      0.1562
    103  C         24.0360   74.0120    5.4110 C.2   114  ALA114      0.2260
    104  O         23.6340   73.9670    4.2550 O.2   114  ALA114     -0.2867
    105  CB        25.9250   75.6040    5.7830 C.3   114  ALA114      0.0290
    106  N         20.8030   76.1650    6.0890 N.3   116  TRP116     -0.1241
    107  CA        20.4750   77.5550    6.4120 C.3   116  TRP116      0.1605
    108  C         19.0400   77.6350    6.8750 C.2   116  TRP116      0.2264
    109  O         18.1470   77.0400    6.2720 O.2   116  TRP116     -0.2867
    110  CB        20.6910   78.4470    5.1910 C.3   116  TRP116      0.0550
    111  CG        22.1040   78.5750    4.9250 C.ar  116  TRP116      0.0003
    112  CD1       22.8380   77.8280    4.0800 C.ar  116  TRP116      0.0946
    113  CD2       23.0170   79.4590    5.5860 C.ar  116  TRP116      0.0152
    114  NE1       24.1540   78.2030    4.1350 N.ar  116  TRP116     -0.2442
    115  CE2       24.2940   79.2070    5.0550 C.ar  116  TRP116      0.0810
    116  CE3       22.8660   80.4640    6.5450 C.ar  116  TRP116      0.0012
    117  CZ2       25.4360   79.9060    5.4670 C.ar  116  TRP116      0.0191
    118  CZ3       23.9930   81.1620    6.9610 C.ar  116  TRP116      0.0001
    119  CH2       25.2620   80.8860    6.4160 C.ar  116  TRP116      0.0015
@<TRIPOS>BOND
     1    15    14    2
     2    14    13    1
     3    16    13    1
     4    16    17    1
     5    16    18    1
     6    12    13    1
     7    10     8   ar
     8    10    11   ar
     9     8     6   ar
    10   112   114   ar
    11   112   111   ar
    12   114   115   ar
    13   104   103    2
    14    23    20    1
    15    23    24    1
    16   101   102    1
    17    11     9   ar
    18    20    19    1
    19    20    21    1
    20     1     2    1
    21     4     3    2
    22   111   110    1
    23   111   113   ar
    24   115   117   ar
    25   115   113   ar
    26     6     5    1
    27     6     7   ar
    28   110   107    1
    29     5     2    1
    30   103   102    1
    31   117   119   ar
    32   113   116   ar
    33   102   105    1
    34     2     3    1
    35    24    26   ar
    36    24    25   ar
    37    21    22    2
    38     9     7   ar
    39   106   107    1
    40    26    28   ar
    41   109   108    2
    42   107   108    1
    43   119   118   ar
    44   116   118   ar
    45    25    27   ar
    46    99   100    1
    47    99    96    1
    48    32    31    1
    49    32    35    1
    50    32    33    1
    51    98    97    2
    52    37    35    1
    53    74    72   ar
    54    74    75   ar
    55    28    29   ar
    56    35    36    1
    57    72    71   ar
    58    33    34    2
    59    27    29   ar
    60    97    96    1
    61    29    30    1
    62    96    95    1
    63    75    73   ar
    64    71    73   ar
    65    71    70    1
    66    38    39    1
    67    60    61    1
    68    60    57    1
    69    83    82    2
    70    63    61   ar
    71    63    65   ar
    72    39    40    1
    73    39    42    1
    74    61    62   ar
    75    50    53    1
    76    50    51    1
    77    50    49    1
    78    67    70    1
    79    67    68    1
    80    67    66    1
    81    47    45   ar
    82    47    48   ar
    83    55    53    1
    84    40    41    2
    85    65    64   ar
    86    45    43   ar
    87    53    54    1
    88    51    52    2
    89    84    82   am
    90    48    46   ar
    91    82    81    1
    92    68    69    2
    93    62    64   ar
    94    57    58    1
    95    57    56    1
    96    43    42    1
    97    43    44   ar
    98    46    44   ar
    99    58    59    2
   100    93    94   ar
   101    93    91   ar
   102    81    80    1
   103    94    92   ar
   104    80    77    1
   105    91    90   ar
   106    88    87    2
   107    77    76    1
   108    77    78    1
   109    92    90   ar
   110    90    89    1
   111    87    86    1
   112    78    79    2
   113    85    86    1
   114    89    86    1
