@<TRIPOS>MOLECULE
tmp/2f54I00.pdb
 77 78 0 0 0
SMALL
GASTEIGER

@<TRIPOS>ATOM
      1  N         18.7500   33.6220  127.1350 N.3    31  TYR31      -0.1227
      2  CA        18.5880   34.8710  126.3510 C.3    31  TYR31       0.1736
      3  C         19.7410   35.0390  125.3690 C.2    31  TYR31       0.2595
      4  O         19.5700   35.5740  124.2780 O.2    31  TYR31      -0.2718
      5  CB        18.5130   36.0760  127.2680 C.3    31  TYR31       0.0548
      6  CG        18.2380   37.4130  126.5710 C.ar   31  TYR31      -0.0200
      7  CD1       19.2450   38.3490  126.3840 C.ar   31  TYR31      -0.0009
      8  CD2       16.9730   37.7370  126.1360 C.ar   31  TYR31      -0.0009
      9  CE1       18.9850   39.5930  125.7660 C.ar   31  TYR31       0.0417
     10  CE2       16.7010   38.9690  125.5180 C.ar   31  TYR31       0.0417
     11  CZ        17.7050   39.8830  125.3350 C.ar   31  TYR31       0.1957
     12  OH        17.4090   41.0990  124.7220 O.3    31  TYR31      -0.2866
     13  N         20.9190   34.5910  125.7670 N.am   32  ASN32      -0.1974
     14  CA        22.0780   34.6670  124.9110 C.3    32  ASN32       0.1688
     15  C         23.1850   33.7360  125.3830 C.2    32  ASN32       0.2292
     16  O         23.0690   33.0830  126.4180 O.2    32  ASN32      -0.2864
     17  CB        22.5990   36.1250  124.8030 C.3    32  ASN32       0.1181
     18  CG        23.1550   36.6670  126.1300 C.2    32  ASN32       0.2629
     19  OD1       23.4840   37.8570  126.2440 O.2    32  ASN32      -0.2716
     20  ND2       23.2600   35.8010  127.1250 N.am   32  ASN32      -0.0877
     21  N         22.7810   33.6870  129.8070 N.3    93  ARG93      -0.1231
     22  CA        21.9930   34.5690  130.6610 C.3    93  ARG93       0.1679
     23  C         20.5120   34.2030  130.6030 C.2    93  ARG93       0.2434
     24  O         19.9840   33.9450  129.5390 O.2    93  ARG93      -0.2733
     25  CB        22.2270   36.0310  130.2680 C.3    93  ARG93       0.0321
     26  CG        23.6770   36.4020  130.2710 C.3    93  ARG93       0.0489
     27  CD        23.8880   37.8580  130.0790 C.3    93  ARG93       0.2205
     28  NE        23.5310   38.6420  131.2680 N.pl3  93  ARG93      -0.0865
     29  CZ        23.5960   39.9730  131.3240 C.cat  93  ARG93       0.5346
     30  NH1       23.9890   40.6570  130.2790 N.pl3  93  ARG93       0.1354
     31  NH2       23.2750   40.6080  132.4210 N.pl3  93  ARG93       0.1354
     32  N         19.8450   34.2090  131.7660 N.am   94  PRO94      -0.2718
     33  CA        18.4870   33.7870  131.9250 C.3    94  PRO94       0.1535
     34  C         17.5490   34.4730  131.0410 C.2    94  PRO94       0.2599
     35  O         17.6380   35.6690  130.8620 O.2    94  PRO94      -0.2715
     36  CB        18.1750   34.1560  133.3710 C.3    94  PRO94       0.0310
     37  CG        19.4380   34.1980  134.0310 C.3    94  PRO94       0.0237
     38  CD        20.4050   34.6800  133.0370 C.3    94  PRO94       0.0939
     39  N         16.6210   33.7180  130.4850 N.am   95  THR95      -0.1937
     40  CA        15.5960   34.2880  129.6330 C.3    95  THR95       0.2028
     41  C         14.5010   34.8290  130.5540 C.2    95  THR95       0.2643
     42  O         13.6560   35.6220  130.1540 O.2    95  THR95      -0.2714
     43  CB        15.0060   33.2120  128.6870 C.3    95  THR95       0.1808
     44  OG1       14.3210   33.8390  127.6050 O.3    95  THR95      -0.2208
     45  CG2       14.0750   32.2900  129.4250 C.3    95  THR95       0.0379
     46  N         14.5540   34.3910  131.8020 N.am   96  SER96      -0.1935
     47  CA        13.5940   34.7520  132.7890 C.3    96  SER96       0.2055
     48  C         14.3160   34.7570  134.1640 C.2    96  SER96       0.2644
     49  O         15.5070   34.5390  134.2240 O.2    96  SER96      -0.2714
     50  CB        12.4660   33.7310  132.7450 C.3    96  SER96       0.2130
     51  OG        11.4510   34.0500  133.6320 O.3    96  SER96      -0.2179
     52  N         13.6020   35.0310  135.2430 N.am   97  GLY97      -0.1939
     53  CA        14.2210   35.0460  136.5840 C.3    97  GLY97       0.2014
     54  C         14.4060   36.4330  137.2330 C.2    97  GLY97       0.2639
     55  O         14.6460   36.5280  138.4330 O.2    97  GLY97      -0.2714
     56  N         14.3110   37.5010  136.4490 N.am   98  GLY98      -0.1939
     57  CA        14.4670   38.8510  136.9910 C.3    98  GLY98       0.2014
     58  C         15.8210   39.1550  137.6520 C.2    98  GLY98       0.2640
     59  O         15.8880   39.9900  138.5290 O.2    98  GLY98      -0.2714
     60  N         16.8930   38.4720  137.2140 N.am   99  SER99      -0.1935
     61  CA        18.2630   38.6800  137.7720 C.3    99  SER99       0.2055
     62  C         19.1650   39.3210  136.7660 C.2    99  SER99       0.2643
     63  O         19.9490   40.2240  137.0800 O.2    99  SER99      -0.2714
     64  CB        18.9380   37.3330  138.0770 C.3    99  SER99       0.2130
     65  OG        18.2160   36.5750  138.9440 O.3    99  SER99      -0.2179
     66  N         19.1000   38.7810  135.5540 N.am  100  TYR100     -0.1973
     67  CA        19.9580   39.1650  134.4910 C.3   100  TYR100      0.1639
     68  C         21.3940   38.5780  134.7680 C.2   100  TYR100      0.2290
     69  O         22.3070   38.7710  133.9890 O.2   100  TYR100     -0.2864
     70  CB        19.9890   40.6810  134.3370 C.3   100  TYR100      0.0560
     71  CG        18.6100   41.3320  134.1270 C.ar  100  TYR100     -0.0198
     72  CD1       18.0230   41.3720  132.8710 C.ar  100  TYR100     -0.0009
     73  CD2       17.9420   41.9280  135.1690 C.ar  100  TYR100     -0.0009
     74  CE1       16.7960   41.9580  132.6740 C.ar  100  TYR100      0.0417
     75  CE2       16.7060   42.5250  134.9860 C.ar  100  TYR100      0.0417
     76  CZ        16.1390   42.5370  133.7370 C.ar  100  TYR100      0.1957
     77  OH        14.9220   43.1320  133.5530 O.3   100  TYR100     -0.2866
@<TRIPOS>BOND
     1     4     3    2
     2    12    11    1
     3    17    14    1
     4    17    18    1
     5    14    15    1
     6    14    13    1
     7    11    10   ar
     8    11     9   ar
     9     3    13   am
    10     3     2    1
    11    15    16    2
    12    10     8   ar
    13     9     7   ar
    14    18    19    2
    15    18    20   am
    16     8     6   ar
    17     2     1    1
    18     2     5    1
    19     7     6   ar
    20     6     5    1
    21    44    43    1
    22    43    45    1
    23    43    40    1
    24    24    23    2
    25    40    39    1
    26    40    41    1
    27    21    22    1
    28    27    26    1
    29    27    28    1
    30    42    41    2
    31    25    26    1
    32    25    22    1
    33    30    29    1
    34    39    34   am
    35    41    46   am
    36    23    22    1
    37    23    32   am
    38    35    34    2
    39    34    33    1
    40    28    29    2
    41    29    31    1
    42    32    33    1
    43    32    38    1
    44    46    47    1
    45    33    36    1
    46    74    72   ar
    47    74    76   ar
    48    50    47    1
    49    50    51    1
    50    47    48    1
    51    72    71   ar
    52    38    37    1
    53    36    37    1
    54    77    76    1
    55    76    75   ar
    56    69    68    2
    57    71    70    1
    58    71    73   ar
    59    48    49    2
    60    48    52   am
    61    70    67    1
    62    67    68    1
    63    67    66    1
    64    75    73   ar
    65    52    53    1
    66    66    62   am
    67    56    57    1
    68    56    54   am
    69    53    54    1
    70    62    63    2
    71    62    61    1
    72    57    58    1
    73    60    58   am
    74    60    61    1
    75    54    55    2
    76    58    59    2
    77    61    64    1
    78    64    65    1
