@<TRIPOS>MOLECULE
tmp/2f55E00.pdb
 158 150 0 0 0
SMALL
GASTEIGER

@<TRIPOS>ATOM
      1  N         54.2450   63.8220  123.0490 N.3    41  PRO41      -0.2102
      2  CA        53.5870   65.0070  123.5920 C.3    41  PRO41       0.1504
      3  C         52.2260   64.6830  124.1970 C.2    41  PRO41       0.2576
      4  O         51.6230   65.5200  124.8700 O.2    41  PRO41      -0.2718
      5  CB        53.4890   65.9200  122.3800 C.3    41  PRO41       0.0282
      6  CG        53.2400   64.9620  121.2910 C.3    41  PRO41       0.0208
      7  CD        54.2420   63.8620  121.5810 C.3    41  PRO41       0.0893
      8  N         51.7570   63.4600  123.9740 N.am   42  SER42      -0.1938
      9  CA        50.4630   63.0240  124.4870 C.3    42  SER42       0.2055
     10  C         50.6530   62.1390  125.7000 C.2    42  SER42       0.2643
     11  O         51.7080   61.5430  125.8690 O.2    42  SER42      -0.2714
     12  CB        49.7130   62.2370  123.4030 C.3    42  SER42       0.2130
     13  OG        48.4590   61.7580  123.8550 O.3    42  SER42      -0.2179
     14  N         49.6330   62.0700  126.5510 N.am   43  VAL43      -0.1963
     15  CA        49.6590   61.2000  127.7390 C.3    43  VAL43       0.1727
     16  C         49.1040   59.8500  127.2630 C.2    43  VAL43       0.2616
     17  O         49.8050   58.8300  127.2580 O.2    43  VAL43      -0.2715
     18  CB        48.7420   61.7360  128.8860 C.3    43  VAL43       0.0290
     19  CG1       48.7600   60.7840  130.0620 C.3    43  VAL43       0.0023
     20  CG2       49.2200   63.0950  129.3460 C.3    43  VAL43       0.0023
     21  N         47.8390   59.8760  126.8430 N.am   44  ALA44      -0.1977
     22  CA        47.1400   58.7050  126.3310 C.3    44  ALA44       0.1597
     23  C         48.0290   57.9510  125.3570 C.2    44  ALA44       0.2287
     24  O         48.2020   56.7490  125.4820 O.2    44  ALA44      -0.2864
     25  CB        45.8620   59.1390  125.6410 C.3    44  ALA44       0.0319
     26  N         51.4250   62.4320  134.2360 N.3    66  GLY66      -0.1210
     27  CA        51.0600   63.3290  135.3120 C.3    66  GLY66       0.1956
     28  C         49.8410   62.8380  136.0490 C.2    66  GLY66       0.2611
     29  O         49.6760   63.1160  137.2290 O.2    66  GLY66      -0.2717
     30  N         48.9770   62.1130  135.3600 N.am   67  VAL67      -0.1979
     31  CA        47.8010   61.5910  136.0150 C.3    67  VAL67       0.1595
     32  C         48.1340   60.2370  136.6340 C.2    67  VAL67       0.2287
     33  O         47.3100   59.6750  137.3470 O.2    67  VAL67      -0.2864
     34  CB        46.6490   61.4170  135.0370 C.3    67  VAL67       0.0276
     35  CG1       46.5160   62.6680  134.1870 C.3    67  VAL67       0.0022
     36  CG2       46.8790   60.1980  134.1750 C.3    67  VAL67       0.0022
     37  N         55.8470   61.7180  129.2220 N.3    80  THR80      -0.1218
     38  CA        55.3210   62.8780  128.5190 C.3    80  THR80       0.1862
     39  C         56.2490   64.0730  128.6980 C.2    80  THR80       0.2287
     40  O         56.9090   64.2120  129.7280 O.2    80  THR80      -0.2866
     41  CB        53.9080   63.2590  129.0250 C.3    80  THR80       0.1770
     42  OG1       53.9650   63.6180  130.4070 O.3    80  THR80      -0.2211
     43  CG2       52.9560   62.0950  128.8810 C.3    80  THR80       0.0375
     44  N         55.5210   67.2040  129.0820 N.3    82  GLY82      -0.1210
     45  CA        55.0390   68.0170  130.1860 C.3    82  GLY82       0.1956
     46  C         55.4630   67.5140  131.5470 C.2    82  GLY82       0.2611
     47  O         55.7840   68.3060  132.4420 O.2    82  GLY82      -0.2717
     48  N         55.4500   66.1950  131.7080 N.am   83  LYS83      -0.1979
     49  CA        55.8630   65.5810  132.9550 C.3    83  LYS83       0.1596
     50  C         57.3670   65.6070  132.9670 C.2    83  LYS83       0.2287
     51  O         57.9790   65.9860  133.9480 O.2    83  LYS83      -0.2864
     52  CB        55.3860   64.1380  133.0280 C.3    83  LYS83       0.0298
     53  CG        55.8950   63.3690  134.2390 C.3    83  LYS83       0.0038
     54  CD        55.2200   63.8200  135.5080 C.3    83  LYS83       0.0206
     55  CE        55.8900   63.1850  136.6950 C.3    83  LYS83       0.1093
     56  NZ        55.9220   61.7270  136.5200 N.3    83  LYS83      -0.1314
     57  N         58.4190   68.8000  134.4330 N.3    86  ALA86      -0.1245
     58  CA        58.0880   68.9060  135.8420 C.3    86  ALA86       0.1562
     59  C         59.0960   68.0760  136.6310 C.2    86  ALA86       0.2260
     60  O         59.6720   68.5510  137.6110 O.2    86  ALA86      -0.2867
     61  CB        56.6850   68.3930  136.0780 C.3    86  ALA86       0.0290
     62  N         53.8260   73.1370  120.2850 N.3   107  ASP107     -0.1225
     63  CA        53.2270   73.6350  121.5080 C.3   107  ASP107      0.1805
     64  C         54.2950   73.9490  122.5470 C.2   107  ASP107      0.2598
     65  O         55.3920   73.4100  122.5040 O.2   107  ASP107     -0.2718
     66  CB        52.2580   72.6000  122.0570 C.3   107  ASP107      0.1424
     67  CG        52.8290   71.2070  122.0170 C.2   107  ASP107      0.3668
     68  OD1       53.1710   70.7480  120.9140 O.co2 107  ASP107     -0.2456
     69  OD2       52.9450   70.5620  123.0760 O.co2 107  ASP107     -0.2456
     70  N         53.9600   74.8310  123.4790 N.am  108  SER108     -0.1938
     71  CA        54.8700   75.2420  124.5310 C.3   108  SER108      0.2055
     72  C         55.6200   74.0550  125.0800 C.2   108  SER108      0.2643
     73  O         56.8370   73.9570  124.9520 O.2   108  SER108     -0.2714
     74  CB        54.0740   75.9240  125.6510 C.3   108  SER108      0.2130
     75  OG        53.1020   74.9950  126.1130 O.3   108  SER108     -0.2179
     76  N         54.8660   73.1560  125.6980 N.am  109  THR109     -0.1950
     77  CA        55.4080   71.9470  126.3130 C.3   109  THR109      0.1897
     78  C         56.3870   71.1700  125.4360 C.2   109  THR109      0.2313
     79  O         57.5500   71.0240  125.7960 O.2   109  THR109     -0.2863
     80  CB        54.2650   71.0060  126.7520 C.3   109  THR109      0.1794
     81  OG1       53.4000   71.7040  127.6580 O.3   109  THR109     -0.2208
     82  CG2       54.8110   69.7750  127.4390 C.3   109  THR109      0.0378
     83  N         35.0460   68.8680  120.3720 N.3   204  ARG204     -0.1245
     84  CA        35.6450   68.7800  121.7050 C.3   204  ARG204      0.1563
     85  C         34.5340   68.9080  122.7620 C.2   204  ARG204      0.2260
     86  O         33.7430   69.8640  122.7360 O.2   204  ARG204     -0.2867
     87  CB        36.6980   69.8960  121.8680 C.3   204  ARG204      0.0307
     88  CG        37.4690   69.9140  123.1950 C.3   204  ARG204      0.0489
     89  CD        38.2900   68.6470  123.4090 C.3   204  ARG204      0.2205
     90  NE        39.2990   68.8100  124.4560 N.pl3 204  ARG204     -0.0865
     91  CZ        40.5940   69.0180  124.2260 C.cat 204  ARG204      0.5346
     92  NH1       41.0510   69.0880  122.9840 N.pl3 204  ARG204      0.1354
     93  NH2       41.4320   69.1600  125.2440 N.pl3 204  ARG204      0.1354
     94  N         38.6580   68.8400  114.2730 N.3   223  ASP223     -0.1225
     95  CA        39.8760   68.0510  114.4520 C.3   223  ASP223      0.1805
     96  C         39.9090   67.3050  115.7760 C.2   223  ASP223      0.2598
     97  O         40.9410   66.7680  116.1720 O.2   223  ASP223     -0.2718
     98  CB        41.1100   68.9570  114.3550 C.3   223  ASP223      0.1424
     99  CG        41.3000   69.5430  112.9670 C.2   223  ASP223      0.3668
    100  OD1       40.3320   70.1190  112.4340 O.co2 223  ASP223     -0.2456
    101  OD2       42.4180   69.4380  112.4140 O.co2 223  ASP223     -0.2456
    102  N         38.7760   67.2720  116.4610 N.am  224  ALA224     -0.1966
    103  CA        38.6890   66.5990  117.7410 C.3   224  ALA224      0.1728
    104  C         38.4480   65.1060  117.5940 C.2   224  ALA224      0.2616
    105  O         37.6060   64.5430  118.2890 O.2   224  ALA224     -0.2715
    106  CB        37.5870   67.2280  118.5910 C.3   224  ALA224      0.0334
    107  N         39.1730   64.4600  116.6880 N.am  225  LEU225     -0.1977
    108  CA        39.0220   63.0250  116.5230 C.3   225  LEU225      0.1596
    109  C         40.3240   62.2910  116.8740 C.2   225  LEU225      0.2287
    110  O         41.3520   62.4860  116.2250 O.2   225  LEU225     -0.2864
    111  CB        38.5480   62.7030  115.0990 C.3   225  LEU225      0.0297
    112  CG        37.0180   62.7560  114.9180 C.3   225  LEU225      0.0022
    113  CD1       36.5190   64.1540  115.2490 C.3   225  LEU225      0.0001
    114  CD2       36.6130   62.3570  113.4950 C.3   225  LEU225      0.0001
    115  N         54.3900   79.5540  130.7570 N.3   305  ALA305     -0.1245
    116  CA        54.2230   78.2510  131.3890 C.3   305  ALA305      0.1562
    117  C         55.5030   77.8810  132.1240 C.2   305  ALA305      0.2260
    118  O         55.4750   77.5540  133.2990 O.2   305  ALA305     -0.2867
    119  CB        53.8890   77.1980  130.3450 C.3   305  ALA305      0.0290
    120  N         54.8310   76.8630  136.2770 N.3   309  TRP309     -0.1227
    121  CA        54.5290   75.4360  136.1210 C.3   309  TRP309      0.1737
    122  C         55.7490   74.5910  136.4090 C.2   309  TRP309      0.2595
    123  O         55.6230   73.4240  136.7710 O.2   309  TRP309     -0.2718
    124  CB        54.0760   75.1090  134.6980 C.3   309  TRP309      0.0564
    125  CG        52.6270   75.2840  134.4430 C.ar  309  TRP309      0.0003
    126  CD1       52.0510   76.1240  133.5370 C.ar  309  TRP309      0.0946
    127  CD2       51.5600   74.5960  135.0870 C.ar  309  TRP309      0.0152
    128  NE1       50.6860   76.0020  133.5750 N.ar  309  TRP309     -0.2442
    129  CE2       50.3560   75.0670  134.5210 C.ar  309  TRP309      0.0810
    130  CE3       51.4990   73.6240  136.0890 C.ar  309  TRP309      0.0012
    131  CZ2       49.1010   74.5980  134.9270 C.ar  309  TRP309      0.0191
    132  CZ3       50.2530   73.1590  136.4920 C.ar  309  TRP309      0.0001
    133  CH2       49.0720   73.6470  135.9110 C.ar  309  TRP309      0.0015
    134  N         56.9300   75.1750  136.2310 N.am  310  TYR310     -0.1976
    135  CA        58.1780   74.4550  136.4710 C.3   310  TYR310      0.1639
    136  C         59.1990   75.3020  137.2440 C.2   310  TYR310      0.2290
    137  O         60.3160   74.8530  137.5080 O.2   310  TYR310     -0.2864
    138  CB        58.7930   74.0250  135.1350 C.3   310  TYR310      0.0560
    139  CG        57.7840   73.4980  134.1530 C.ar  310  TYR310     -0.0198
    140  CD1       57.2770   72.2050  134.2640 C.ar  310  TYR310     -0.0009
    141  CD2       57.2950   74.3100  133.1370 C.ar  310  TYR310     -0.0009
    142  CE1       56.2950   71.7340  133.3800 C.ar  310  TYR310      0.0417
    143  CE2       56.3200   73.8550  132.2550 C.ar  310  TYR310      0.0417
    144  CZ        55.8220   72.5710  132.3830 C.ar  310  TYR310      0.1957
    145  OH        54.8260   72.1530  131.5350 O.3   310  TYR310     -0.2866
    146  N         46.0490   79.1750  137.6540 N.3   359  LYS359     -0.1245
    147  CA        46.8780   78.0340  137.3060 C.3   359  LYS359      0.1561
    148  C         45.9620   76.8260  137.3010 C.2   359  LYS359      0.2260
    149  O         46.1120   75.9230  136.4760 O.2   359  LYS359     -0.2867
    150  CB        47.9760   77.8610  138.3480 C.3   359  LYS359      0.0271
    151  CG        49.0650   76.9000  137.9690 C.3   359  LYS359      0.0035
    152  CD        50.3620   77.3660  138.5900 C.3   359  LYS359      0.0206
    153  CE        51.4640   76.3410  138.5050 C.3   359  LYS359      0.1093
    154  NZ        52.7370   76.8950  139.0410 N.3   359  LYS359     -0.1314
    155  N         43.1910   77.0830  134.5700 N.3   362  GLY362     -0.1225
    156  CA        43.7680   76.8960  133.2540 C.3   362  GLY362      0.1811
    157  C         43.3200   78.0000  132.3240 C.2   362  GLY362      0.2280
    158  O         42.4400   77.7930  131.4930 O.2   362  GLY362     -0.2866
@<TRIPOS>BOND
     1   101    99   ar
     2   100    99   ar
     3    99    98    1
     4   114   112    1
     5    94    95    1
     6    98    95    1
     7    95    96    1
     8   112   111    1
     9   112   113    1
    10   111   108    1
    11    96    97    2
    12    96   102   am
    13   110   109    2
    14   102   103    1
    15   108   107    1
    16   108   109    1
    17   107   104   am
    18   104   103    1
    19   104   105    2
    20   103   106    1
    21    62    63    1
    22    83    84    1
    23    68    67   ar
    24     6     7    1
    25     6     5    1
    26    63    66    1
    27    63    64    1
    28     7     1    1
    29    84    87    1
    30    84    85    1
    31    87    88    1
    32    67    66    1
    33    67    69   ar
    34     5     2    1
    35    65    64    2
    36    64    70   am
    37    86    85    2
    38    92    91    1
    39     1     2    1
    40    88    89    1
    41    12    13    1
    42    12     9    1
    43    89    90    1
    44    70    71    1
    45     2     3    1
    46     8     3   am
    47     8     9    1
    48     3     4    2
    49    91    90    2
    50    91    93    1
    51     9    10    1
    52    71    72    1
    53    71    74    1
    54    73    72    2
    55    72    76   am
    56    23    24    2
    57    23    22    1
    58    78    79    2
    59    78    77    1
    60    25    22    1
    61    74    75    1
    62    76    77    1
    63    10    11    2
    64    10    14   am
    65    77    80    1
    66    22    21    1
    67    14    15    1
    68    80    82    1
    69    80    81    1
    70    21    16   am
    71    17    16    2
    72    16    15    1
    73    15    18    1
    74    38    39    1
    75    38    41    1
    76    38    37    1
    77    39    40    2
    78    43    41    1
    79    18    20    1
    80    18    19    1
    81    41    42    1
    82    44    45    1
    83    45    46    1
    84   119   116    1
    85   115   116    1
    86   116   117    1
    87   158   157    2
    88   145   144    1
    89    46    48   am
    90    46    47    2
    91    48    49    1
    92   117   118    2
    93   143   144   ar
    94   143   141   ar
    95   157   156    1
    96   144   142   ar
    97    49    50    1
    98    49    52    1
    99    50    51    2
   100    52    53    1
   101   141   139   ar
   102   156   155    1
   103   142   140   ar
   104   126   128   ar
   105   126   125   ar
   106   128   129   ar
   107   139   140   ar
   108   139   138    1
   109    36    34    1
   110    35    34    1
   111    26    27    1
   112    53    54    1
   113    57    58    1
   114   125   124    1
   115   125   127   ar
   116   129   131   ar
   117   129   127   ar
   118   124   121    1
   119   131   133   ar
   120    34    31    1
   121   127   130   ar
   122   138   135    1
   123    27    28    1
   124    30    31    1
   125    30    28   am
   126    54    55    1
   127    58    61    1
   128    58    59    1
   129   133   132   ar
   130    31    32    1
   131    28    29    2
   132   130   132   ar
   133   121   120    1
   134   121   122    1
   135   134   122   am
   136   134   135    1
   137   122   123    2
   138   135   136    1
   139   149   148    2
   140    56    55    1
   141    59    60    2
   142    32    33    2
   143   136   137    2
   144   148   147    1
   145   147   146    1
   146   147   150    1
   147   151   150    1
   148   151   152    1
   149   153   152    1
   150   153   154    1
