@<TRIPOS>MOLECULE
tmp/2f57B00.pdb
 158 149 0 0 0
SMALL
GASTEIGER

@<TRIPOS>ATOM
      1  N         11.4070   29.9400    1.4350 N.3    37  ILE37      -0.1231
      2  CA        12.5840   30.8110    1.5890 C.3    37  ILE37       0.1692
      3  C         13.9120   30.1340    1.2220 C.2    37  ILE37       0.2593
      4  O         14.9430   30.7990    1.0990 O.2    37  ILE37      -0.2718
      5  CB        12.6740   31.4160    3.0020 C.3    37  ILE37       0.0266
      6  CG1       12.8210   30.3320    4.0610 C.3    37  ILE37       0.0019
      7  CG2       11.4470   32.2730    3.3000 C.3    37  ILE37       0.0020
      8  CD1       13.0860   30.8930    5.4370 C.3    37  ILE37       0.0001
      9  N         13.8870   28.8200    1.0470 N.am   38  GLY38      -0.1942
     10  CA        15.0630   28.0920    0.6070 C.3    38  GLY38       0.2014
     11  C         14.8970   26.5880    0.7120 C.2    38  GLY38       0.2639
     12  O         13.7850   26.0840    0.9330 O.2    38  GLY38      -0.2714
     13  N         16.0180   25.8890    0.5630 N.am   39  GLU39      -0.1963
     14  CA        16.0750   24.4330    0.6240 C.3    39  GLU39       0.1733
     15  C         17.4570   23.9600    1.0860 C.2    39  GLU39       0.2616
     16  O         18.4940   24.4720    0.6420 O.2    39  GLU39      -0.2715
     17  CB        15.7590   23.8460   -0.7510 C.3    39  GLU39       0.0429
     18  CG        15.5840   22.3290   -0.7460 C.3    39  GLU39       0.1163
     19  CD        15.2500   21.7550   -2.1170 C.2    39  GLU39       0.3649
     20  OE1       15.0270   22.5340   -3.0720 O.co2  39  GLU39      -0.2457
     21  OE2       15.2110   20.5130   -2.2330 O.co2  39  GLU39      -0.2457
     22  N         17.4670   22.9730    1.9700 N.am   40  GLY40      -0.1955
     23  CA        18.6960   22.3460    2.4370 C.3    40  GLY40       0.1869
     24  C         18.5160   20.8490    2.4300 C.2    40  GLY40       0.2309
     25  O         17.4750   20.3410    2.0050 O.2    40  GLY40      -0.2863
     26  N         12.3840   24.8370    3.0710 N.3    45  VAL45      -0.1245
     27  CA        12.0520   25.6390    4.2590 C.3    45  VAL45       0.1561
     28  C         11.0570   26.7150    3.8440 C.2    45  VAL45       0.2260
     29  O         11.3360   27.5020    2.9480 O.2    45  VAL45      -0.2867
     30  CB        13.3030   26.2840    4.9010 C.3    45  VAL45       0.0252
     31  CG1       12.9150   27.0970    6.1540 C.3    45  VAL45       0.0019
     32  CG2       14.3310   25.1970    5.2460 C.3    45  VAL45       0.0019
     33  N          8.8410   28.5440   10.9860 N.3    58  ALA58      -0.1245
     34  CA         9.4400   27.9330    9.8160 C.3    58  ALA58       0.1562
     35  C          8.9220   26.4970    9.7360 C.2    58  ALA58       0.2260
     36  O          8.6510   25.8600   10.7650 O.2    58  ALA58      -0.2867
     37  CB        10.9960   27.9540    9.9080 C.3    58  ALA58       0.0290
     38  N          9.9890   22.9280    7.7540 N.3    60  LYS60      -0.1245
     39  CA        10.7940   22.0880    6.8470 C.3    60  LYS60       0.1561
     40  C          9.8390   21.0570    6.2770 C.2    60  LYS60       0.2260
     41  O          9.0900   20.4180    7.0220 O.2    60  LYS60      -0.2867
     42  CB        11.9490   21.3740    7.5690 C.3    60  LYS60       0.0271
     43  CG        13.0590   22.2520    8.1070 C.3    60  LYS60       0.0035
     44  CD        14.2220   21.3940    8.6420 C.3    60  LYS60       0.0206
     45  CE        15.4420   22.1910    9.0550 C.3    60  LYS60       0.1093
     46  NZ        16.5520   21.2680    9.5340 N.3    60  LYS60      -0.1314
     47  N         17.9630   25.9750   17.9480 N.3    89  VAL89      -0.1245
     48  CA        16.7390   26.3500   17.2250 C.3    89  VAL89       0.1561
     49  C         15.5510   25.5130   17.7870 C.2    89  VAL89       0.2260
     50  O         15.6540   24.2960   17.9650 O.2    89  VAL89      -0.2867
     51  CB        16.9030   26.1450   15.6980 C.3    89  VAL89       0.0252
     52  CG1       15.5620   26.2710   14.9630 C.3    89  VAL89       0.0019
     53  CG2       17.9090   27.1260   15.1250 C.3    89  VAL89       0.0019
     54  N          9.1630   24.6740   13.1560 N.3   105  MET105     -0.1230
     55  CA        10.2750   25.1540   13.9340 C.3   105  MET105      0.1702
     56  C         10.2560   26.6650   14.0660 C.2   105  MET105      0.2592
     57  O          9.4720   27.3530   13.4260 O.2   105  MET105     -0.2718
     58  CB        11.5800   24.7150   13.2820 C.3   105  MET105      0.0401
     59  CG        11.7670   23.1970   13.2490 C.3   105  MET105      0.0596
     60  SD        13.4180   22.8150   12.6710 S.3   105  MET105     -0.1393
     61  CE        13.4550   24.0860   11.4150 C.3   105  MET105      0.0692
     62  N         11.0920   27.1560   14.9690 N.am  106  GLU106     -0.1966
     63  CA        11.3340   28.5760   15.1390 C.3   106  GLU106      0.1733
     64  C         11.8400   29.1410   13.8280 C.2   106  GLU106      0.2616
     65  O         12.6550   28.5070   13.1520 O.2   106  GLU106     -0.2715
     66  CB        12.4290   28.7480   16.2070 C.3   106  GLU106      0.0429
     67  CG        12.7050   30.1460   16.6450 C.3   106  GLU106      0.1163
     68  CD        13.8950   30.2390   17.5910 C.2   106  GLU106      0.3649
     69  OE1       14.3670   29.1890   18.1270 O.co2 106  GLU106     -0.2457
     70  OE2       14.3570   31.3850   17.7780 O.co2 106  GLU106     -0.2457
     71  N         11.3820   30.3330   13.4700 N.am  107  PHE107     -0.1960
     72  CA        11.9210   31.0380   12.3130 C.3   107  PHE107      0.1771
     73  C         12.9900   32.0320   12.7840 C.2   107  PHE107      0.2619
     74  O         12.7070   32.9430   13.5620 O.2   107  PHE107     -0.2715
     75  CB        10.8120   31.7870   11.5740 C.3   107  PHE107      0.0574
     76  CG        11.2910   32.6440   10.4470 C.ar  107  PHE107     -0.0200
     77  CD1       12.2900   32.2130    9.5800 C.ar  107  PHE107     -0.0042
     78  CD2       10.7210   33.8960   10.2320 C.ar  107  PHE107     -0.0042
     79  CE1       12.7170   33.0200    8.5390 C.ar  107  PHE107     -0.0003
     80  CE2       11.1510   34.6920    9.1890 C.ar  107  PHE107     -0.0003
     81  CZ        12.1460   34.2470    8.3440 C.ar  107  PHE107     -0.0000
     82  N         14.2110   31.8270   12.3180 N.am  108  LEU108     -0.1963
     83  CA        15.3340   32.7140   12.6370 C.3   108  LEU108      0.1728
     84  C         15.5860   33.6370   11.4470 C.2   108  LEU108      0.2616
     85  O         16.1130   33.2260   10.4260 O.2   108  LEU108     -0.2715
     86  CB        16.5740   31.9120   12.9790 C.3   108  LEU108      0.0311
     87  CG        16.4660   31.4400   14.4430 C.3   108  LEU108      0.0022
     88  CD1       15.7630   30.0860   14.5110 C.3   108  LEU108      0.0001
     89  CD2       17.8050   31.3970   15.1230 C.3   108  LEU108      0.0001
     90  N         15.2640   34.9070   11.6300 N.am  109  GLU109     -0.1977
     91  CA        15.1720   35.8250   10.5200 C.3   109  GLU109      0.1602
     92  C         16.5130   36.4000   10.0520 C.2   109  GLU109      0.2287
     93  O         16.5810   36.9760    8.9570 O.2   109  GLU109     -0.2864
     94  CB        14.2420   36.9910   10.8980 C.3   109  GLU109      0.0415
     95  CG        12.8780   36.5640   11.4590 C.3   109  GLU109      0.1163
     96  CD        12.2710   37.6080   12.3940 C.2   109  GLU109      0.3649
     97  OE1       11.9790   38.7220   11.9050 O.co2 109  GLU109     -0.2457
     98  OE2       12.0870   37.3100   13.6060 O.co2 109  GLU109     -0.2457
     99  N         19.2570   34.8230    9.2860 N.3   111  GLY111     -0.1210
    100  CA        19.9530   33.9600    8.3370 C.3   111  GLY111      0.1956
    101  C         21.0950   33.1770    8.9590 C.2   111  GLY111      0.2611
    102  O         21.1450   32.9970   10.1660 O.2   111  GLY111     -0.2717
    103  N         21.9950   32.6780    8.1170 N.am  112  ALA112     -0.1979
    104  CA        23.0530   31.7660    8.5620 C.3   112  ALA112      0.1597
    105  C         24.3550   32.5350    8.7630 C.2   112  ALA112      0.2287
    106  O         24.6030   33.5610    8.1100 O.2   112  ALA112     -0.2864
    107  CB        23.2590   30.6520    7.5220 C.3   112  ALA112      0.0319
    108  N         27.3640   27.0620    8.3880 N.3   154  ASP154     -0.1239
    109  CA        26.0540   26.8420    7.7770 C.3   154  ASP154      0.1674
    110  C         25.0170   26.3690    8.7900 C.2   154  ASP154      0.2266
    111  O         23.8130   26.5430    8.5700 O.2   154  ASP154     -0.2867
    112  CB        26.1070   25.7820    6.6780 C.3   154  ASP154      0.1410
    113  CG        27.1970   26.0190    5.6630 C.2   154  ASP154      0.3668
    114  OD1       26.8320   26.2700    4.5040 O.co2 154  ASP154     -0.2456
    115  OD2       28.3990   25.9300    6.0170 O.co2 154  ASP154     -0.2456
    116  N         22.4390   29.7180   12.9600 N.3   157  LEU157     -0.1245
    117  CA        21.4250   30.6880   12.5480 C.3   157  LEU157      0.1561
    118  C         21.2950   31.8390   13.5390 C.2   157  LEU157      0.2260
    119  O         21.5630   31.6850   14.7380 O.2   157  LEU157     -0.2867
    120  CB        20.0660   29.9960   12.4010 C.3   157  LEU157      0.0270
    121  CG        20.0120   28.8790   11.3590 C.3   157  LEU157      0.0019
    122  CD1       18.6340   28.2200   11.3140 C.3   157  LEU157      0.0001
    123  CD2       20.4050   29.4090    9.9820 C.3   157  LEU157      0.0001
    124  N         21.6330   24.9170   14.6370 N.3   167  SER167     -0.1202
    125  CA        20.5960   24.2840   13.8370 C.3   167  SER167      0.2020
    126  C         21.1410   23.0440   13.1100 C.2   167  SER167      0.2618
    127  O         22.2800   22.6210   13.3430 O.2   167  SER167     -0.2717
    128  CB        20.0450   25.2830   12.8260 C.3   167  SER167      0.2103
    129  OG        18.8880   24.7730   12.1920 O.3   167  SER167     -0.2182
    130  N         20.3130   22.4560   12.2530 N.am  168  ASP168     -0.1973
    131  CA        20.7430   21.3920   11.3220 C.3   168  ASP168      0.1709
    132  C         21.3350   20.1630   12.0150 C.2   168  ASP168      0.2293
    133  O         22.5280   19.8350   11.8980 O.2   168  ASP168     -0.2864
    134  CB        21.6750   21.9720   10.2470 C.3   168  ASP168      0.1436
    135  CG        20.9220   22.8690    9.2530 C.2   168  ASP168      0.3671
    136  OD1       19.6670   22.9240    9.3010 O.co2 168  ASP168     -0.2456
    137  OD2       21.5790   23.5060    8.4100 O.co2 168  ASP168     -0.2456
    138  N         20.2510   40.5150    5.7140 N.3   296  GLN296     -0.1231
    139  CA        19.1620   39.7090    5.2050 C.3   296  GLN296      0.1698
    140  C         17.9550   40.5920    5.0220 C.2   296  GLN296      0.2592
    141  O         17.5770   41.3380    5.9340 O.2   296  GLN296     -0.2718
    142  CB        18.8050   38.6030    6.1970 C.3   296  GLN296      0.0381
    143  CG        19.9230   37.6520    6.5010 C.3   296  GLN296      0.0905
    144  CD        20.2280   36.6990    5.3660 C.2   296  GLN296      0.2608
    145  OE1       19.3380   36.3300    4.6010 O.2   296  GLN296     -0.2717
    146  NE2       21.4900   36.2730    5.2640 N.am  296  GLN296     -0.0878
    147  N         17.3480   40.5060    3.8450 N.am  297  TYR297     -0.1976
    148  CA        16.0350   41.0770    3.6340 C.3   297  TYR297      0.1639
    149  C         15.0330   40.3300    4.5140 C.2   297  TYR297      0.2290
    150  O         15.2020   39.1320    4.7890 O.2   297  TYR297     -0.2864
    151  CB        15.6340   40.9660    2.1710 C.3   297  TYR297      0.0560
    152  CG        16.5260   41.7560    1.2420 C.ar  297  TYR297     -0.0198
    153  CD1       16.6280   43.1330    1.3650 C.ar  297  TYR297     -0.0009
    154  CD2       17.2530   41.1290    0.2270 C.ar  297  TYR297     -0.0009
    155  CE1       17.4330   43.8740    0.5130 C.ar  297  TYR297      0.0417
    156  CE2       18.0630   41.8590   -0.6290 C.ar  297  TYR297      0.0417
    157  CZ        18.1500   43.2380   -0.4810 C.ar  297  TYR297      0.1957
    158  OH        18.9470   43.9950   -1.3160 O.3   297  TYR297     -0.2866
@<TRIPOS>BOND
     1    20    19   ar
     2    21    19   ar
     3    19    18    1
     4   158   157    1
     5    17    18    1
     6    17    14    1
     7   156   157   ar
     8   156   154   ar
     9   157   155   ar
    10   154   152   ar
    11   155   153   ar
    12    13    14    1
    13    13    11   am
    14    10    11    1
    15    10     9    1
    16    14    15    1
    17    16    15    2
    18    11    12    2
    19     9     3   am
    20    15    22   am
    21     4     3    2
    22     3     2    1
    23   152   153   ar
    24   152   151    1
    25     1     2    1
    26     2     5    1
    27    22    23    1
    28    25    24    2
    29   151   148    1
    30    24    23    1
    31    29    28    2
    32     5     7    1
    33     5     6    1
    34    26    27    1
    35   148   147    1
    36   148   149    1
    37    28    27    1
    38   147   140   am
    39     6     8    1
    40    27    30    1
    41   114   113   ar
    42   149   150    2
    43   145   144    2
    44    30    32    1
    45    30    31    1
    46   140   139    1
    47   140   141    2
    48   139   138    1
    49   139   142    1
    50   146   144   am
    51   144   143    1
    52   113   115   ar
    53   113   112    1
    54   142   143    1
    55    40    39    1
    56    40    41    2
    57   112   109    1
    58    39    42    1
    59    39    38    1
    60   107   104    1
    61    42    43    1
    62   109   108    1
    63   109   110    1
    64    43    44    1
    65   106   105    2
    66   103   104    1
    67   103   101   am
    68   100   101    1
    69   100    99    1
    70    81    79   ar
    71    81    80   ar
    72   137   135   ar
    73    79    77   ar
    74   104   105    1
    75   111   110    2
    76    44    45    1
    77    93    92    2
    78   101   102    2
    79    45    46    1
    80    80    78   ar
    81   135   136   ar
    82   135   134    1
    83    77    76   ar
    84    35    34    1
    85    35    36    2
    86    34    37    1
    87    34    33    1
    88   123   121    1
    89    92    91    1
    90    78    76   ar
    91   134   131    1
    92    85    84    2
    93    76    75    1
    94    91    94    1
    95    91    90    1
    96    94    95    1
    97   122   121    1
    98   131   132    1
    99   131   130    1
   100   121   120    1
   101    61    60    1
   102    84    90   am
   103    84    83    1
   104    95    96    1
   105    75    72    1
   106   133   132    2
   107    97    96   ar
   108   129   128    1
   109   130   126   am
   110    72    73    1
   111    72    71    1
   112    82    83    1
   113    82    73   am
   114    96    98   ar
   115   120   117    1
   116   117   116    1
   117   117   118    1
   118    83    86    1
   119    60    59    1
   120    73    74    2
   121   128   125    1
   122    86    87    1
   123   126   127    2
   124   126   125    1
   125    65    64    2
   126    54    55    1
   127    59    58    1
   128    58    55    1
   129    57    56    2
   130    71    64   am
   131   118   119    2
   132    64    63    1
   133   125   124    1
   134    55    56    1
   135    56    62   am
   136    87    88    1
   137    87    89    1
   138    52    51    1
   139    62    63    1
   140    53    51    1
   141    63    66    1
   142    51    48    1
   143    66    67    1
   144    67    68    1
   145    48    49    1
   146    48    47    1
   147    68    70   ar
   148    68    69   ar
   149    49    50    2
