@<TRIPOS>MOLECULE
tmp/2f58B00.pdb
 143 144 0 0 0
SMALL
GASTEIGER

@<TRIPOS>ATOM
      1  N         66.7140   74.6550  -21.5130 N.3    33  TYR33      -0.1241
      2  CA        67.8160   74.9280  -22.3980 C.3    33  TYR33       0.1605
      3  C         67.7310   73.8950  -23.5050 C.2    33  TYR33       0.2264
      4  O         67.8030   74.2430  -24.6810 O.2    33  TYR33      -0.2867
      5  CB        69.1210   74.7810  -21.6790 C.3    33  TYR33       0.0534
      6  CG        70.2490   74.6230  -22.6330 C.ar   33  TYR33      -0.0201
      7  CD1       70.6970   75.6920  -23.4090 C.ar   33  TYR33      -0.0009
      8  CD2       70.8620   73.3960  -22.7840 C.ar   33  TYR33      -0.0009
      9  CE1       71.7490   75.5280  -24.3310 C.ar   33  TYR33       0.0417
     10  CE2       71.9010   73.2160  -23.6850 C.ar   33  TYR33       0.0417
     11  CZ        72.3450   74.2780  -24.4630 C.ar   33  TYR33       0.1957
     12  OH        73.3680   74.0360  -25.3670 O.3    33  TYR33      -0.2866
     13  N         66.4870   66.1340  -23.8720 N.3    36  HIS36      -0.1241
     14  CA        67.0880   64.9680  -24.4850 C.3    36  HIS36       0.1621
     15  C         66.3050   63.6890  -24.4180 C.2    36  HIS36       0.2264
     16  O         65.3370   63.5820  -23.6910 O.2    36  HIS36      -0.2867
     17  CB        68.3930   64.6470  -23.7950 C.3    36  HIS36       0.0745
     18  CG        69.3700   65.7620  -23.7960 C.ar   36  HIS36       0.0817
     19  ND1       70.6890   65.5800  -24.1650 N.ar   36  HIS36      -0.2268
     20  CD2       69.2540   67.0540  -23.4220 C.ar   36  HIS36       0.1154
     21  CE1       71.3410   66.7130  -24.0160 C.ar   36  HIS36       0.1986
     22  NE2       70.4930   67.6230  -23.5670 N.ar   36  HIS36      -0.2212
     23  N         68.6290   65.3170  -29.0540 N.3    51  TYR51      -0.1241
     24  CA        67.9420   66.3410  -28.2780 C.3    51  TYR51       0.1605
     25  C         67.4390   67.4670  -29.1330 C.2    51  TYR51       0.2264
     26  O         67.7430   67.5500  -30.3210 O.2    51  TYR51      -0.2867
     27  CB        68.8250   66.8930  -27.1790 C.3    51  TYR51       0.0534
     28  CG        69.9990   67.6890  -27.6770 C.ar   51  TYR51      -0.0201
     29  CD1       71.2020   67.0720  -28.0100 C.ar   51  TYR51      -0.0009
     30  CD2       69.9250   69.0670  -27.7750 C.ar   51  TYR51      -0.0009
     31  CE1       72.3120   67.8230  -28.4250 C.ar   51  TYR51       0.0417
     32  CE2       71.0210   69.8230  -28.1880 C.ar   51  TYR51       0.0417
     33  CZ        72.2010   69.1980  -28.5090 C.ar   51  TYR51       0.1957
     34  OH        73.2560   69.9680  -28.9110 O.3    51  TYR51      -0.2866
     35  N         67.0290   71.6650  -28.9300 N.3    53  HIS53      -0.1226
     36  CA        67.3830   72.9410  -28.3080 C.3    53  HIS53       0.1752
     37  C         66.1750   73.8410  -28.0130 C.2    53  HIS53       0.2596
     38  O         65.0740   73.6260  -28.5600 O.2    53  HIS53      -0.2718
     39  CB        68.3240   73.6440  -29.2510 C.3    53  HIS53       0.0759
     40  CG        68.9910   74.8430  -28.6770 C.ar   53  HIS53       0.0818
     41  ND1       68.7000   76.1140  -29.1090 N.ar   53  HIS53      -0.2268
     42  CD2       70.0070   74.9650  -27.7940 C.ar   53  HIS53       0.1154
     43  CE1       69.5190   76.9720  -28.5270 C.ar   53  HIS53       0.1986
     44  NE2       70.3210   76.2990  -27.7230 N.ar   53  HIS53      -0.2212
     45  N         66.3580   74.8270  -27.1300 N.am   54  TYR54      -0.1962
     46  CA        65.2430   75.7090  -26.8330 C.3    54  TYR54       0.1771
     47  C         64.9060   76.5180  -28.0840 C.2    54  TYR54       0.2620
     48  O         63.7990   77.0420  -28.2070 O.2    54  TYR54      -0.2715
     49  CB        65.5120   76.6210  -25.6190 C.3    54  TYR54       0.0574
     50  CG        66.5950   77.6610  -25.7860 C.ar   54  TYR54      -0.0198
     51  CD1       66.3880   78.7860  -26.5650 C.ar   54  TYR54      -0.0009
     52  CD2       67.8450   77.4860  -25.2050 C.ar   54  TYR54      -0.0009
     53  CE1       67.3940   79.7010  -26.7740 C.ar   54  TYR54       0.0417
     54  CE2       68.8590   78.3910  -25.4070 C.ar   54  TYR54       0.0417
     55  CZ        68.6260   79.4970  -26.2010 C.ar   54  TYR54       0.1957
     56  OH        69.6430   80.3800  -26.4660 O.3    54  TYR54      -0.2866
     57  N         65.8490   76.5800  -29.0240 N.am   55  SER55      -0.1950
     58  CA        65.6350   77.3050  -30.2740 C.3    55  SER55       0.1924
     59  C         64.9190   76.4300  -31.3250 C.2    55  SER55       0.2314
     60  O         64.9160   76.7570  -32.5210 O.2    55  SER55      -0.2863
     61  CB        66.9620   77.7640  -30.8600 C.3    55  SER55       0.2116
     62  OG        67.5850   76.6760  -31.5150 O.3    55  SER55      -0.2180
     63  N         65.8310   73.8210  -32.6430 N.3    57  GLY57      -0.1210
     64  CA        66.7610   73.0720  -33.4740 C.3    57  GLY57       0.1956
     65  C         67.0660   71.7270  -32.8530 C.2    57  GLY57       0.2613
     66  O         66.7640   71.5450  -31.6810 O.2    57  GLY57      -0.2717
     67  N         67.6870   70.8050  -33.6060 N.am   58  THR58      -0.1938
     68  CA        68.0210   69.4510  -33.0960 C.3    58  THR58       0.2028
     69  C         69.4520   68.9620  -33.3640 C.2    58  THR58       0.2642
     70  O         70.1850   69.5350  -34.1500 O.2    58  THR58      -0.2714
     71  CB        67.0920   68.3540  -33.7020 C.3    58  THR58       0.1808
     72  OG1       67.3240   68.2560  -35.1070 O.3    58  THR58      -0.2208
     73  CG2       65.6310   68.6680  -33.4710 C.3    58  THR58       0.0379
     74  N         69.8260   67.8860  -32.6820 N.am   59  ASN59      -0.1971
     75  CA        71.1270   67.2480  -32.8480 C.3    59  ASN59       0.1688
     76  C         70.9270   65.7960  -32.4030 C.2    59  ASN59       0.2292
     77  O         70.3720   65.5170  -31.3320 O.2    59  ASN59      -0.2864
     78  CB        72.2250   67.9390  -32.0600 C.3    59  ASN59       0.1181
     79  CG        73.5490   67.2010  -32.1510 C.2    59  ASN59       0.2629
     80  OD1       73.8890   66.6180  -33.1730 O.2    59  ASN59      -0.2716
     81  ND2       74.2870   67.2030  -31.0590 N.am   59  ASN59      -0.0877
     82  N         68.2580   69.3010  -19.6640 N.3    99  GLU99      -0.1245
     83  CA        69.5980   69.8340  -19.5240 C.3    99  GLU99       0.1567
     84  C         69.3130   71.2660  -19.1280 C.2    99  GLU99       0.2260
     85  O         68.4170   71.8890  -19.7120 O.2    99  GLU99      -0.2867
     86  CB        70.3840   69.7540  -20.8190 C.3    99  GLU99       0.0388
     87  CG        71.8570   69.4640  -20.5690 C.3    99  GLU99       0.1160
     88  CD        72.7270   69.8120  -21.7560 C.2    99  GLU99       0.3649
     89  OE1       72.1630   70.2960  -22.7520 O.co2  99  GLU99      -0.2457
     90  OE2       73.9770   69.6350  -21.6980 O.co2  99  GLU99      -0.2457
     91  N         77.8430   76.9450  -11.7020 N.3   104  TYR104     -0.1241
     92  CA        79.2220   76.4580  -11.6460 C.3   104  TYR104      0.1605
     93  C         80.0970   77.6650  -11.4270 C.2   104  TYR104      0.2264
     94  O         79.9910   78.6430  -12.1750 O.2   104  TYR104     -0.2867
     95  CB        79.6170   75.7870  -12.9620 C.3   104  TYR104      0.0534
     96  CG        81.1070   75.6630  -13.2300 C.ar  104  TYR104     -0.0201
     97  CD1       81.8080   74.5520  -12.7920 C.ar  104  TYR104     -0.0009
     98  CD2       81.7840   76.5920  -14.0290 C.ar  104  TYR104     -0.0009
     99  CE1       83.1320   74.3380  -13.1410 C.ar  104  TYR104      0.0417
    100  CE2       83.1210   76.3880  -14.3930 C.ar  104  TYR104      0.0417
    101  CZ        83.7920   75.2410  -13.9440 C.ar  104  TYR104      0.1957
    102  OH        85.0990   74.9440  -14.3170 O.3   104  TYR104     -0.2866
    103  N         78.3620   82.0000  -12.5700 N.3   108  ALA108     -0.1231
    104  CA        78.5590   81.3750  -13.8600 C.3   108  ALA108      0.1694
    105  C         77.7430   80.1020  -13.9270 C.2   108  ALA108      0.2592
    106  O         77.6710   79.3530  -12.9550 O.2   108  ALA108     -0.2718
    107  CB        80.0390   81.0640  -14.0650 C.3   108  ALA108      0.0304
    108  N         77.1050   79.8860  -15.0700 N.am  109  TYR109     -0.1962
    109  CA        76.2950   78.6970  -15.2830 C.3   109  TYR109      0.1771
    110  C         77.1060   77.5760  -15.9620 C.2   109  TYR109      0.2620
    111  O         78.2530   77.7780  -16.3780 O.2   109  TYR109     -0.2715
    112  CB        75.0780   79.0370  -16.1390 C.3   109  TYR109      0.0574
    113  CG        74.1520   80.1050  -15.5820 C.ar  109  TYR109     -0.0198
    114  CD1       74.0990   80.3910  -14.2130 C.ar  109  TYR109     -0.0009
    115  CD2       73.2900   80.8050  -16.4350 C.ar  109  TYR109     -0.0009
    116  CE1       73.2020   81.3470  -13.7140 C.ar  109  TYR109      0.0417
    117  CE2       72.3960   81.7540  -15.9480 C.ar  109  TYR109      0.0417
    118  CZ        72.3550   82.0190  -14.5930 C.ar  109  TYR109      0.1957
    119  OH        71.4520   82.9500  -14.1330 O.3   109  TYR109     -0.2866
    120  N         76.5040   76.3890  -16.0230 N.am  110  TYR110     -0.1960
    121  CA        77.0830   75.1880  -16.6440 C.3   110  TYR110      0.1771
    122  C         75.9190   74.2460  -16.8610 C.2   110  TYR110      0.2619
    123  O         75.2990   73.8010  -15.8960 O.2   110  TYR110     -0.2715
    124  CB        78.0750   74.5130  -15.7140 C.3   110  TYR110      0.0574
    125  CG        78.6000   73.1880  -16.2100 C.ar  110  TYR110     -0.0198
    126  CD1       77.7920   72.0500  -16.2120 C.ar  110  TYR110     -0.0009
    127  CD2       79.9260   73.0470  -16.5940 C.ar  110  TYR110     -0.0009
    128  CE1       78.2960   70.7960  -16.5760 C.ar  110  TYR110      0.0417
    129  CE2       80.4410   71.7960  -16.9620 C.ar  110  TYR110      0.0417
    130  CZ        79.6110   70.6760  -16.9450 C.ar  110  TYR110      0.1957
    131  OH        80.1090   69.4540  -17.2870 O.3   110  TYR110     -0.2866
    132  N         75.6780   73.8820  -18.1160 N.am  111  TYR111     -0.1974
    133  CA        74.5630   73.0170  -18.4730 C.3   111  TYR111      0.1639
    134  C         74.7870   71.5160  -18.2910 C.2   111  TYR111      0.2290
    135  O         75.7980   70.9650  -18.7250 O.2   111  TYR111     -0.2864
    136  CB        74.1510   73.3230  -19.9020 C.3   111  TYR111      0.0560
    137  CG        73.7220   74.7630  -20.1210 C.ar  111  TYR111     -0.0198
    138  CD1       74.6490   75.7770  -20.3690 C.ar  111  TYR111     -0.0009
    139  CD2       72.3830   75.1030  -20.1080 C.ar  111  TYR111     -0.0009
    140  CE1       74.2290   77.1000  -20.6010 C.ar  111  TYR111      0.0417
    141  CE2       71.9590   76.4100  -20.3410 C.ar  111  TYR111      0.0417
    142  CZ        72.8730   77.4040  -20.5860 C.ar  111  TYR111      0.1957
    143  OH        72.3880   78.6780  -20.8110 O.3   111  TYR111     -0.2866
@<TRIPOS>BOND
     1    72    71    1
     2    70    69    2
     3    71    73    1
     4    71    68    1
     5    67    68    1
     6    67    65   am
     7    64    65    1
     8    64    63    1
     9    69    68    1
    10    69    74   am
    11    80    79    2
    12    65    66    2
    13    75    74    1
    14    75    76    1
    15    75    78    1
    16    60    59    2
    17    76    77    2
    18    79    78    1
    19    79    81   am
    20    62    61    1
    21    59    58    1
    22    61    58    1
    23    26    25    2
    24    58    57    1
    25    39    40    1
    26    39    36    1
    27    25    24    1
    28    41    40   ar
    29    41    43   ar
    30    23    24    1
    31    57    47   am
    32    35    36    1
    33    34    33    1
    34    40    42   ar
    35    38    37    2
    36    43    44   ar
    37    33    31   ar
    38    33    32   ar
    39    31    29   ar
    40    36    37    1
    41    24    27    1
    42    48    47    2
    43    32    30   ar
    44    47    46    1
    45    37    45   am
    46    29    28   ar
    47    42    44   ar
    48    30    28   ar
    49    28    27    1
    50    45    46    1
    51    46    49    1
    52    53    51   ar
    53    53    55   ar
    54    51    50   ar
    55    56    55    1
    56    55    54   ar
    57    50    49    1
    58    50    52   ar
    59    54    52   ar
    60    12    11    1
    61     4     3    2
    62    14    15    1
    63    14    13    1
    64    14    17    1
    65    11     9   ar
    66    11    10   ar
    67    15    16    2
    68     9     7   ar
    69    19    21   ar
    70    19    18   ar
    71    21    22   ar
    72    18    17    1
    73    18    20   ar
    74    10     8   ar
    75    22    20   ar
    76     3     2    1
    77     7     6   ar
    78     8     6   ar
    79    89    88   ar
    80     6     5    1
    81     2     5    1
    82     2     1    1
    83    88    90   ar
    84    88    87    1
    85    86    87    1
    86    86    83    1
    87   143   142    1
    88   140   142   ar
    89   140   138   ar
    90   142   141   ar
    91   138   137   ar
    92   141   139   ar
    93   137   139   ar
    94   137   136    1
    95   136   133    1
    96    85    84    2
    97    82    83    1
    98    83    84    1
    99   135   134    2
   100   133   134    1
   101   133   132    1
   102   132   122   am
   103   131   130    1
   104   129   130   ar
   105   129   127   ar
   106   130   128   ar
   107   122   121    1
   108   122   123    2
   109   121   120    1
   110   121   124    1
   111   127   125   ar
   112   128   126   ar
   113   115   117   ar
   114   115   113   ar
   115   111   110    2
   116   126   125   ar
   117   125   124    1
   118   112   113    1
   119   112   109    1
   120   120   110   am
   121   110   109    1
   122   117   118   ar
   123   113   114   ar
   124   109   108    1
   125   108   105   am
   126   118   119    1
   127   118   116   ar
   128   100    98   ar
   129   100   101   ar
   130   102   101    1
   131   114   116   ar
   132   107   104    1
   133    98    96   ar
   134   101    99   ar
   135   105   104    1
   136   105   106    2
   137   104   103    1
   138    96    95    1
   139    96    97   ar
   140    99    97   ar
   141    95    92    1
   142    94    93    2
   143    91    92    1
   144    92    93    1
