@<TRIPOS>MOLECULE
tmp/2f5tA00.pdb
 127 125 0 0 0
SMALL
GASTEIGER

@<TRIPOS>ATOM
      1  N         30.7590   39.5210   38.7370 N.3   116  PHE116     -0.1241
      2  CA        32.0160   39.0390   38.1110 C.3   116  PHE116      0.1605
      3  C         32.9600   38.4600   39.1670 C.2   116  PHE116      0.2264
      4  O         33.5440   37.3680   38.9960 O.2   116  PHE116     -0.2867
      5  CB        32.7740   40.1510   37.3600 C.3   116  PHE116      0.0534
      6  CG        34.0760   39.6780   36.8090 C.ar  116  PHE116     -0.0203
      7  CD1       34.0870   38.9360   35.6360 C.ar  116  PHE116     -0.0042
      8  CD2       35.2760   39.8850   37.5090 C.ar  116  PHE116     -0.0042
      9  CE1       35.2770   38.4270   35.1460 C.ar  116  PHE116     -0.0003
     10  CE2       36.4830   39.3580   37.0080 C.ar  116  PHE116     -0.0003
     11  CZ        36.4770   38.6300   35.8500 C.ar  116  PHE116     -0.0000
     12  N         31.4160   35.1860   40.5630 N.3   119  TYR119     -0.1227
     13  CA        31.4570   34.1470   39.5060 C.3   119  TYR119      0.1736
     14  C         32.8760   33.5530   39.4300 C.2   119  TYR119      0.2596
     15  O         33.0690   32.3020   39.3540 O.2   119  TYR119     -0.2718
     16  CB        31.0000   34.7280   38.1590 C.3   119  TYR119      0.0548
     17  CG        30.6020   33.7320   37.0960 C.ar  119  TYR119     -0.0200
     18  CD1       31.4600   33.4150   36.0540 C.ar  119  TYR119     -0.0009
     19  CD2       29.3310   33.1590   37.1140 C.ar  119  TYR119     -0.0009
     20  CE1       31.0940   32.5560   35.0330 C.ar  119  TYR119      0.0417
     21  CE2       28.9160   32.2620   36.1050 C.ar  119  TYR119      0.0417
     22  CZ        29.8190   31.9560   35.0790 C.ar  119  TYR119      0.1957
     23  OH        29.4020   31.0740   34.1250 O.3   119  TYR119     -0.2866
     24  N         33.8710   34.4490   39.4770 N.am  120  SER120     -0.1952
     25  CA        35.2610   34.0140   39.4050 C.3   120  SER120      0.1924
     26  C         35.6610   33.1720   40.6450 C.2   120  SER120      0.2314
     27  O         36.3630   32.1550   40.5370 O.2   120  SER120     -0.2863
     28  CB        36.1600   35.2360   39.2890 C.3   120  SER120      0.2116
     29  OG        35.8430   35.9660   38.1120 O.3   120  SER120     -0.2180
     30  N         34.1250   29.7600   40.3620 N.3   123  ILE123     -0.1231
     31  CA        34.8620   28.9070   39.4220 C.3   123  ILE123      0.1692
     32  C         36.1260   28.3180   40.1160 C.2   123  ILE123      0.2591
     33  O         36.4570   27.1460   39.8790 O.2   123  ILE123     -0.2718
     34  CB        35.1980   29.6360   38.1040 C.3   123  ILE123      0.0266
     35  CG1       33.9380   29.7430   37.3020 C.3   123  ILE123      0.0019
     36  CG2       36.3200   28.8730   37.3620 C.3   123  ILE123      0.0020
     37  CD1       34.0860   30.6370   36.0530 C.3   123  ILE123      0.0001
     38  N         36.8410   29.1220   40.9210 N.am  124  GLU124     -0.1979
     39  CA        38.0100   28.5280   41.6130 C.3   124  GLU124      0.1602
     40  C         37.5540   27.4050   42.5500 C.2   124  GLU124      0.2287
     41  O         38.2000   26.3610   42.6170 O.2   124  GLU124     -0.2864
     42  CB        38.8480   29.5710   42.3270 C.3   124  GLU124      0.0415
     43  CG        39.4500   30.6190   41.3510 C.3   124  GLU124      0.1163
     44  CD        40.2650   30.0360   40.2030 C.2   124  GLU124      0.3649
     45  OE1       41.0320   29.0610   40.4690 O.co2 124  GLU124     -0.2457
     46  OE2       40.1370   30.5430   39.0600 O.co2 124  GLU124     -0.2457
     47  N         42.5190   27.1000   33.3820 N.3   193  GLU193     -0.1231
     48  CA        42.3620   28.5340   33.0530 C.3   193  GLU193      0.1699
     49  C         40.9050   28.9740   32.9500 C.2   193  GLU193      0.2592
     50  O         40.6550   30.1260   32.6180 O.2   193  GLU193     -0.2718
     51  CB        43.1310   28.8890   31.7970 C.3   193  GLU193      0.0402
     52  CG        42.5960   28.2740   30.5370 C.3   193  GLU193      0.1161
     53  CD        43.1000   29.0250   29.3000 C.2   193  GLU193      0.3649
     54  OE1       43.5430   28.3360   28.3520 O.co2 193  GLU193     -0.2457
     55  OE2       43.0850   30.2980   29.2670 O.co2 193  GLU193     -0.2457
     56  N         39.9730   28.0510   33.2450 N.am  194  ALA194     -0.1966
     57  CA        38.5450   28.3830   33.4120 C.3   194  ALA194      0.1728
     58  C         37.8310   28.7010   32.0830 C.2   194  ALA194      0.2616
     59  O         36.7690   29.2930   32.0990 O.2   194  ALA194     -0.2715
     60  CB        38.3130   29.4300   34.4380 C.3   194  ALA194      0.0334
     61  N         38.4110   28.3140   30.9470 N.am  195  VAL195     -0.1963
     62  CA        37.7110   28.4550   29.6650 C.3   195  VAL195      0.1727
     63  C         36.6870   27.3100   29.5660 C.2   195  VAL195      0.2616
     64  O         37.0380   26.1220   29.8090 O.2   195  VAL195     -0.2715
     65  CB        38.6920   28.4520   28.4850 C.3   195  VAL195      0.0290
     66  CG1       37.9440   28.2820   27.1650 C.3   195  VAL195      0.0023
     67  CG2       39.4800   29.7760   28.5090 C.3   195  VAL195      0.0023
     68  N         35.4440   27.6160   29.1820 N.am  196  ASN196     -0.1972
     69  CA        34.4160   26.5740   29.1360 C.3   196  ASN196      0.1688
     70  C         33.3420   26.9490   28.1330 C.2   196  ASN196      0.2292
     71  O         32.8510   28.0810   28.1500 O.2   196  ASN196     -0.2864
     72  CB        33.8190   26.3180   30.5400 C.3   196  ASN196      0.1181
     73  CG        33.2470   27.5770   31.2130 C.2   196  ASN196      0.2629
     74  OD1       33.9920   28.4100   31.8430 O.2   196  ASN196     -0.2716
     75  ND2       31.9690   27.7120   31.1620 N.am  196  ASN196     -0.0877
     76  N         29.9350   31.1050   28.6130 N.3   211  GLY211     -0.1210
     77  CA        29.1240   31.5830   29.7180 C.3   211  GLY211      0.1956
     78  C         29.2920   33.0710   29.9930 C.2   211  GLY211      0.2612
     79  O         29.7900   33.8390   29.1490 O.2   211  GLY211     -0.2717
     80  N         28.8570   33.4750   31.1830 N.am  212  MET212     -0.1965
     81  CA        28.8990   34.8960   31.5840 C.3   212  MET212      0.1736
     82  C         30.2860   35.4790   31.3110 C.2   212  MET212      0.2616
     83  O         31.2970   34.8360   31.6260 O.2   212  MET212     -0.2715
     84  CB        28.5380   35.0400   33.0470 C.3   212  MET212      0.0427
     85  CG        27.9850   36.4130   33.2990 C.3   212  MET212      0.0599
     86  SD        26.9620   36.6240   34.7590 S.3   212  MET212     -0.1393
     87  CE        26.9560   35.0860   35.5110 C.3   212  MET212      0.0692
     88  N         30.3210   36.6860   30.7350 N.am  213  PHE213     -0.1960
     89  CA        31.5860   37.4170   30.5110 C.3   213  PHE213      0.1771
     90  C         32.4180   36.8550   29.3660 C.2   213  PHE213      0.2619
     91  O         33.5630   37.2810   29.1490 O.2   213  PHE213     -0.2715
     92  CB        32.4560   37.5300   31.7860 C.3   213  PHE213      0.0574
     93  CG        31.6680   37.9610   32.9870 C.ar  213  PHE213     -0.0200
     94  CD1       31.1010   39.2540   33.0710 C.ar  213  PHE213     -0.0042
     95  CD2       31.4150   37.0520   34.0330 C.ar  213  PHE213     -0.0042
     96  CE1       30.3310   39.6330   34.1670 C.ar  213  PHE213     -0.0003
     97  CE2       30.6460   37.4460   35.1420 C.ar  213  PHE213     -0.0003
     98  CZ        30.0950   38.7620   35.1970 C.ar  213  PHE213     -0.0000
     99  N         31.8620   35.8990   28.6010 N.am  214  ALA214     -0.1963
    100  CA        32.6030   35.2940   27.4850 C.3   214  ALA214      0.1728
    101  C         33.1260   36.3210   26.4530 C.2   214  ALA214      0.2616
    102  O         32.4400   37.2970   26.1400 O.2   214  ALA214     -0.2715
    103  CB        31.6920   34.2700   26.7570 C.3   214  ALA214      0.0334
    104  N         34.2830   35.9880   25.8890 N.am  215  VAL215     -0.1963
    105  CA        34.8670   36.7740   24.8050 C.3   215  VAL215      0.1727
    106  C         35.1490   35.9380   23.5220 C.2   215  VAL215      0.2616
    107  O         34.8740   36.4000   22.4030 O.2   215  VAL215     -0.2715
    108  CB        36.2380   37.4050   25.2820 C.3   215  VAL215      0.0290
    109  CG1       36.9900   38.0550   24.0910 C.3   215  VAL215      0.0023
    110  CG2       36.0040   38.3820   26.3800 C.3   215  VAL215      0.0023
    111  N         35.7420   34.7490   23.6810 N.am  216  ILE216     -0.1963
    112  CA        36.2800   34.0770   22.4860 C.3   216  ILE216      0.1727
    113  C         35.2430   33.2700   21.7190 C.2   216  ILE216      0.2616
    114  O         35.4730   32.9390   20.5400 O.2   216  ILE216     -0.2715
    115  CB        37.4900   33.1260   22.8220 C.3   216  ILE216      0.0290
    116  CG1       37.0720   31.8980   23.6830 C.3   216  ILE216      0.0022
    117  CG2       38.5980   33.9510   23.4380 C.3   216  ILE216      0.0023
    118  CD1       38.2590   30.9900   24.0430 C.3   216  ILE216      0.0001
    119  N         34.1350   32.9560   22.3570 N.am  217  GLU217     -0.1977
    120  CA        33.1090   32.1300   21.7390 C.3   217  GLU217      0.1602
    121  C         32.2300   32.9390   20.7620 C.2   217  GLU217      0.2287
    122  O         32.3800   34.1690   20.6300 O.2   217  GLU217     -0.2864
    123  CB        32.2740   31.5370   22.8690 C.3   217  GLU217      0.0415
    124  CG        33.0060   30.4410   23.6700 C.3   217  GLU217      0.1163
    125  CD        33.8200   30.9630   24.8460 C.2   217  GLU217      0.3649
    126  OE1       33.8100   32.2060   25.1370 O.co2 217  GLU217     -0.2457
    127  OE2       34.4140   30.0810   25.5390 O.co2 217  GLU217     -0.2457
@<TRIPOS>BOND
     1   114   113    2
     2   122   121    2
     3   121   120    1
     4   113   119   am
     5   113   112    1
     6   120   119    1
     7   120   123    1
     8   107   106    2
     9   112   115    1
    10   112   111    1
    11   115   117    1
    12   115   116    1
    13   123   124    1
    14   106   111   am
    15   106   105    1
    16   124   125    1
    17   116   118    1
    18   109   108    1
    19   105   108    1
    20   105   104    1
    21   125   126   ar
    22   125   127   ar
    23   108   110    1
    24   104   101   am
    25   102   101    2
    26   101   100    1
    27   103   100    1
    28    66    65    1
    29   100    99    1
    30    70    71    2
    31    70    69    1
    32    54    53   ar
    33    65    67    1
    34    65    62    1
    35    99    90   am
    36    76    77    1
    37    69    68    1
    38    69    72    1
    39    79    78    2
    40    91    90    2
    41    68    63   am
    42    55    53   ar
    43    53    52    1
    44    90    89    1
    45    63    62    1
    46    63    64    2
    47    62    61    1
    48    77    78    1
    49    78    80   am
    50    89    88    1
    51    89    92    1
    52    52    51    1
    53    72    73    1
    54    88    82   am
    55    61    58   am
    56    75    73   am
    57    80    81    1
    58    73    74    2
    59    82    81    1
    60    82    83    2
    61    81    84    1
    62    92    93    1
    63    51    48    1
    64    58    59    2
    65    58    57    1
    66    50    49    2
    67    49    48    1
    68    49    56   am
    69    93    94   ar
    70    93    95   ar
    71    84    85    1
    72    48    47    1
    73    94    96   ar
    74    56    57    1
    75    85    86    1
    76    57    60    1
    77    95    97   ar
    78    23    22    1
    79    96    98   ar
    80    86    87    1
    81    20    22   ar
    82    20    18   ar
    83    22    21   ar
    84    97    98   ar
    85     9     7   ar
    86     9    11   ar
    87     7     6   ar
    88    11    10   ar
    89    37    35    1
    90    18    17   ar
    91    21    19   ar
    92     6     5    1
    93     6     8   ar
    94    10     8   ar
    95    17    19   ar
    96    17    16    1
    97    35    34    1
    98     5     2    1
    99    36    34    1
   100    34    31    1
   101     2     1    1
   102     2     3    1
   103    29    28    1
   104    16    13    1
   105     4     3    2
   106    46    44   ar
   107    28    25    1
   108    15    14    2
   109    25    24    1
   110    25    26    1
   111    31    32    1
   112    31    30    1
   113    14    24   am
   114    14    13    1
   115    13    12    1
   116    33    32    2
   117    32    38   am
   118    44    45   ar
   119    44    43    1
   120    27    26    2
   121    38    39    1
   122    43    42    1
   123    39    42    1
   124    39    40    1
   125    40    41    2
