@<TRIPOS>MOLECULE
tmp/2f5vA00.pdb
 129 121 0 0 0
SMALL
GASTEIGER

@<TRIPOS>ATOM
      1  N          2.6100    4.1820   22.1610 N.3    65  ILE65      -0.1245
      2  CA         2.3810    5.6090   21.8700 C.3    65  ILE65       0.1561
      3  C          1.0540    5.7450   21.0910 C.2    65  ILE65       0.2260
      4  O          0.1830    6.5520   21.4370 O.2    65  ILE65      -0.2867
      5  CB         3.5570    6.1970   21.0610 C.3    65  ILE65       0.0252
      6  CG1        4.8400    6.1850   21.9020 C.3    65  ILE65       0.0019
      7  CG2        3.2190    7.6200   20.6050 C.3    65  ILE65       0.0019
      8  CD1        6.1220    6.3950   21.1200 C.3    65  ILE65       0.0001
      9  N          9.7170   11.3030   24.3110 N.3   127  THR127     -0.1218
     10  CA        11.0930   11.0240   23.8980 C.3   127  THR127      0.1862
     11  C         12.1390   11.5850   24.8820 C.2   127  THR127      0.2287
     12  O         13.2720   11.1750   24.8360 O.2   127  THR127     -0.2866
     13  CB        11.2850   11.5250   22.4420 C.3   127  THR127      0.1770
     14  OG1       10.6000   10.5570   21.6050 O.3   127  THR127     -0.2211
     15  CG2       12.7350   11.5630   22.0250 C.3   127  THR127      0.0375
     16  N         13.4690   14.5700   25.2820 N.3   129  ALA129     -0.1245
     17  CA        14.3840   15.6280   24.8520 C.3   129  ALA129      0.1562
     18  C         14.0340   16.9350   25.5650 C.2   129  ALA129      0.2260
     19  O         12.9020   17.4060   25.4690 O.2   129  ALA129     -0.2867
     20  CB        14.3370   15.7840   23.3520 C.3   129  ALA129      0.0290
     21  N          7.3450   19.9290   11.0790 N.3   319  LEU319     -0.1245
     22  CA         8.2180   18.8150   11.3600 C.3   319  LEU319      0.1561
     23  C          8.5500   18.0920   10.0560 C.2   319  LEU319      0.2260
     24  O          7.6460   17.6680    9.3470 O.2   319  LEU319     -0.2867
     25  CB         7.5790   17.8130   12.3510 C.3   319  LEU319      0.0270
     26  CG         8.3360   16.4950   12.5930 C.3   319  LEU319      0.0019
     27  CD1        9.6730   16.7160   13.2160 C.3   319  LEU319      0.0001
     28  CD2        7.4800   15.5570   13.4600 C.3   319  LEU319      0.0001
     29  N         17.1000   16.7080   15.6800 N.3   406  GLN406     -0.1245
     30  CA        17.3630   15.4730   16.4070 C.3   406  GLN406      0.1566
     31  C         17.7940   14.4300   15.3770 C.2   406  GLN406      0.2260
     32  O         17.1020   14.1870   14.3840 O.2   406  GLN406     -0.2867
     33  CB        16.1750   15.0360   17.2360 C.3   406  GLN406      0.0367
     34  CG        15.8760   15.9980   18.3650 C.3   406  GLN406      0.0905
     35  CD        14.6760   15.7050   19.2130 C.2   406  GLN406      0.2608
     36  OE1       14.3720   16.5070   20.0950 O.2   406  GLN406     -0.2717
     37  NE2       13.9490   14.5840   18.9680 N.am  406  GLN406     -0.0878
     38  N         18.9370   10.6920   15.5670 N.3   408  HIS408     -0.1241
     39  CA        18.6770    9.8430   16.7250 C.3   408  HIS408      0.1621
     40  C         17.9320    8.5930   16.3480 C.2   408  HIS408      0.2264
     41  O         17.7180    8.3080   15.1820 O.2   408  HIS408     -0.2867
     42  CB        17.9490   10.6630   17.8250 C.3   408  HIS408      0.0745
     43  CG        16.5050   10.9950   17.5530 C.ar  408  HIS408      0.0817
     44  ND1       16.0040   11.4380   16.3440 N.ar  408  HIS408     -0.2268
     45  CD2       15.4650   11.0090   18.4080 C.ar  408  HIS408      0.1154
     46  CE1       14.7080   11.6940   16.4670 C.ar  408  HIS408      0.1986
     47  NE2       14.3600   11.4400   17.7140 N.ar  408  HIS408     -0.2212
     48  N         14.2040    7.2290   17.5030 N.3   410  ASP410     -0.1239
     49  CA        12.9700    7.5290   18.2730 C.3   410  ASP410      0.1674
     50  C         12.1170    6.3070   18.2960 C.2   410  ASP410      0.2266
     51  O         12.0220    5.6150   17.2830 O.2   410  ASP410     -0.2867
     52  CB        12.1870    8.6690   17.6050 C.3   410  ASP410      0.1410
     53  CG        11.1630    9.3140   18.5520 C.2   410  ASP410      0.3668
     54  OD1       10.0760    8.7020   18.7990 O.co2 410  ASP410     -0.2456
     55  OD2       11.5020   10.3950   19.0940 O.co2 410  ASP410     -0.2456
     56  N          8.9140    6.3290   18.1780 N.3   412  PHE412     -0.1241
     57  CA         7.8440    6.5270   17.2020 C.3   412  PHE412      0.1605
     58  C          8.2920    5.9780   15.8140 C.2   412  PHE412      0.2264
     59  O          9.4860    5.6560   15.5920 O.2   412  PHE412     -0.2867
     60  CB         7.3600    8.0010   17.2070 C.3   412  PHE412      0.0534
     61  CG         5.8840    8.1930   16.8050 C.ar  412  PHE412     -0.0203
     62  CD1        5.5360    9.1360   15.8460 C.ar  412  PHE412     -0.0042
     63  CD2        4.8810    7.4620   17.3950 C.ar  412  PHE412     -0.0042
     64  CE1        4.1820    9.3390   15.4760 C.ar  412  PHE412     -0.0003
     65  CE2        3.5380    7.6350   17.0290 C.ar  412  PHE412     -0.0003
     66  CZ         3.1920    8.6010   16.0730 C.ar  412  PHE412     -0.0000
     67  N         14.8960   14.3470   12.5190 N.3   430  ARG430     -0.1245
     68  CA        13.6950   15.1410   12.7870 C.3   430  ARG430      0.1563
     69  C         14.1330   16.5730   12.9570 C.2   430  ARG430      0.2260
     70  O         14.9130   16.8690   13.8650 O.2   430  ARG430     -0.2867
     71  CB        12.9410   14.6820   14.0300 C.3   430  ARG430      0.0307
     72  CG        12.1720   13.3750   13.7990 C.3   430  ARG430      0.0489
     73  CD        11.4180   12.9890   15.0470 C.3   430  ARG430      0.2205
     74  NE        10.6400   11.7570   14.8240 N.pl3 430  ARG430     -0.0865
     75  CZ        11.1690   10.5370   14.7280 C.cat 430  ARG430      0.5346
     76  NH1       12.4520   10.3110   14.9180 N.pl3 430  ARG430      0.1354
     77  NH2       10.3660    9.5010   14.4760 N.pl3 430  ARG430      0.1354
     78  N         12.6830   20.5300   13.4440 N.3   432  PHE432     -0.1241
     79  CA        11.4870   21.1490   13.9990 C.3   432  PHE432      0.1605
     80  C         11.5630   22.6700   13.7850 C.2   432  PHE432      0.2264
     81  O         12.4950   23.3160   14.2650 O.2   432  PHE432     -0.2867
     82  CB        11.4010   20.9010   15.5200 C.3   432  PHE432      0.0534
     83  CG        11.4900   19.4450   15.9610 C.ar  432  PHE432     -0.0203
     84  CD1       10.3630   18.7860   16.4410 C.ar  432  PHE432     -0.0042
     85  CD2       12.6940   18.7440   15.9690 C.ar  432  PHE432     -0.0042
     86  CE1       10.4270   17.4920   16.9160 C.ar  432  PHE432     -0.0003
     87  CE2       12.7730   17.4140   16.4260 C.ar  432  PHE432     -0.0003
     88  CZ        11.6400   16.8120   16.9360 C.ar  432  PHE432     -0.0000
     89  N          1.2540   16.3690   14.3220 N.3   503  LEU503     -0.1231
     90  CA         1.7150   15.0470   14.7700 C.3   503  LEU503      0.1693
     91  C          2.8950   15.1870   15.7570 C.2   503  LEU503      0.2592
     92  O          3.1160   14.3230   16.6230 O.2   503  LEU503     -0.2718
     93  CB         2.1570   14.2090   13.5600 C.3   503  LEU503      0.0284
     94  CG         2.3530   12.7300   13.8270 C.3   503  LEU503      0.0019
     95  CD1        1.0100   12.0330   14.0670 C.3   503  LEU503      0.0001
     96  CD2        2.9740   12.1100   12.5910 C.3   503  LEU503      0.0001
     97  N          3.6480   16.2910   15.6090 N.am  504  VAL504     -0.1966
     98  CA         4.7720   16.6540   16.4630 C.3   504  VAL504      0.1727
     99  C          4.3710   16.9250   17.9110 C.2   504  VAL504      0.2616
    100  O          5.2030   16.7990   18.8090 O.2   504  VAL504     -0.2715
    101  CB         5.5310   17.8560   15.8190 C.3   504  VAL504      0.0290
    102  CG1        4.6860   19.0540   15.8070 C.3   504  VAL504      0.0023
    103  CG2        6.8790   18.1260   16.5310 C.3   504  VAL504      0.0023
    104  N          3.1210   17.3260   18.1520 N.am  505  LEU505     -0.1963
    105  CA         2.5880   17.5220   19.5000 C.3   505  LEU505      0.1728
    106  C          3.3730   18.5430   20.3010 C.2   505  LEU505      0.2616
    107  O          3.7210   18.3010   21.4600 O.2   505  LEU505     -0.2715
    108  CB         2.4930   16.1870   20.2920 C.3   505  LEU505      0.0311
    109  CG         1.7070   15.1070   19.5480 C.3   505  LEU505      0.0022
    110  CD1        1.8770   13.7520   20.2640 C.3   505  LEU505      0.0001
    111  CD2        0.2180   15.4810   19.4640 C.3   505  LEU505      0.0001
    112  N          3.6430   19.6910   19.6570 N.am  506  HIS506     -0.1973
    113  CA         4.3690   20.8020   20.2920 C.3   506  HIS506      0.1656
    114  C          3.5510   22.1030   20.2450 C.2   506  HIS506      0.2291
    115  O          4.1070   23.2100   20.2410 O.2   506  HIS506     -0.2864
    116  CB         5.7270   20.9980   19.6450 C.3   506  HIS506      0.0771
    117  CG         6.7490   19.9570   20.0200 C.ar  506  HIS506      0.0820
    118  ND1        8.0160   19.9610   19.4820 N.ar  506  HIS506     -0.2267
    119  CD2        6.7300   18.9230   20.9050 C.ar  506  HIS506      0.1154
    120  CE1        8.7310   18.9740   20.0060 C.ar  506  HIS506      0.1986
    121  NE2        7.9670   18.3170   20.8650 N.ar  506  HIS506     -0.2212
    122  N         12.0910   21.5500   21.7420 N.3   551  ASN551     -0.1240
    123  CA        10.9920   20.8410   22.4270 C.3   551  ASN551      0.1653
    124  C         10.5610   21.6650   23.6380 C.2   551  ASN551      0.2266
    125  O         11.4190   22.0350   24.4470 O.2   551  ASN551     -0.2867
    126  CB        11.4240   19.4170   22.8760 C.3   551  ASN551      0.1155
    127  CG        12.3780   18.7340   21.9290 C.2   551  ASN551      0.2627
    128  OD1       13.5360   19.2000   21.7690 O.2   551  ASN551     -0.2716
    129  ND2       11.9650   17.5820   21.3530 N.am  551  ASN551     -0.0877
@<TRIPOS>BOND
     1    24    23    2
     2    23    22    1
     3    21    22    1
     4    22    25    1
     5    25    26    1
     6    67    68    1
     7    96    94    1
     8    26    27    1
     9    26    28    1
    10    68    69    1
    11    68    71    1
    12    69    70    2
    13    78    79    1
    14    93    94    1
    15    93    90    1
    16    80    79    1
    17    80    81    2
    18    72    71    1
    19    72    73    1
    20    94    95    1
    21    79    82    1
    22    89    90    1
    23    32    31    2
    24    77    75    1
    25    75    74    2
    26    75    76    1
    27    90    91    1
    28    74    73    1
    29    41    40    2
    30    31    30    1
    31    64    62   ar
    32    64    66   ar
    33    82    83    1
    34    38    39    1
    35    59    58    2
    36    97    91   am
    37    97    98    1
    38    29    30    1
    39    91    92    2
    40   102   101    1
    41    58    57    1
    42   101    98    1
    43   101   103    1
    44    62    61   ar
    45    83    85   ar
    46    83    84   ar
    47    85    87   ar
    48    66    65   ar
    49    44    46   ar
    50    44    43   ar
    51    40    39    1
    52    30    33    1
    53    87    88   ar
    54    84    86   ar
    55    98    99    1
    56    46    47   ar
    57    39    42    1
    58    61    60    1
    59    61    63   ar
    60    86    88   ar
    61    65    63   ar
    62    57    60    1
    63    57    56    1
    64    33    34    1
    65    51    50    2
    66    48    49    1
    67    43    42    1
    68    43    45   ar
    69    52    49    1
    70    52    53    1
    71    47    45   ar
    72    99   104   am
    73    99   100    2
    74   104   105    1
    75    49    50    1
    76    34    35    1
    77    53    54   ar
    78    53    55   ar
    79    37    35   am
    80    35    36    2
    81   111   109    1
    82   118   120   ar
    83   118   117   ar
    84   105   108    1
    85   105   106    1
    86   109   110    1
    87   109   108    1
    88   116   117    1
    89   116   113    1
    90   112   113    1
    91   112   106   am
    92   120   121   ar
    93   117   119   ar
    94   115   114    2
    95   114   113    1
    96   106   107    2
    97     7     5    1
    98   121   119   ar
    99     5     2    1
   100     5     6    1
   101     3     4    2
   102     3     2    1
   103     8     6    1
   104   129   127   am
   105    14    13    1
   106   122   123    1
   107   128   127    2
   108     2     1    1
   109   127   126    1
   110    15    13    1
   111   123   126    1
   112   123   124    1
   113    13    10    1
   114    20    17    1
   115   124   125    2
   116    10     9    1
   117    10    11    1
   118    12    11    2
   119    17    16    1
   120    17    18    1
   121    19    18    2
