@<TRIPOS>MOLECULE
tmp/2f5xB00.pdb
 106 102 0 0 0
SMALL
GASTEIGER

@<TRIPOS>ATOM
      1  N          5.9080   23.2110  -39.6690 N.3    12  PHE12      -0.1227
      2  CA         5.4270   24.3080  -38.8240 C.3    12  PHE12       0.1736
      3  C          3.9410   24.5160  -39.0140 C.2    12  PHE12       0.2595
      4  O          3.3690   24.0890  -40.0240 O.2    12  PHE12      -0.2718
      5  CB         6.1670   25.6170  -39.1420 C.3    12  PHE12       0.0547
      6  CG         7.6460   25.5580  -38.8490 C.ar   12  PHE12      -0.0202
      7  CD1        8.1250   25.6930  -37.5370 C.ar   12  PHE12      -0.0042
      8  CD2        8.5600   25.3310  -39.8810 C.ar   12  PHE12      -0.0042
      9  CE1        9.5040   25.6150  -37.2660 C.ar   12  PHE12      -0.0003
     10  CE2        9.9300   25.2540  -39.6210 C.ar   12  PHE12      -0.0003
     11  CZ        10.4060   25.3950  -38.3130 C.ar   12  PHE12      -0.0000
     12  N          3.3330   25.1890  -38.0380 N.am   13  ALA13      -0.1980
     13  CA         1.9210   25.5500  -38.0580 C.3    13  ALA13       0.1597
     14  C          1.5170   26.2600  -39.3430 C.2    13  ALA13       0.2287
     15  O          2.2800   27.0620  -39.9020 O.2    13  ALA13      -0.2864
     16  CB         1.5850   26.4280  -36.8400 C.3    13  ALA13       0.0319
     17  N          1.9260   30.3960  -41.3430 N.3    16  GLY16      -0.1210
     18  CA         3.1980   31.0400  -41.0600 C.3    16  GLY16       0.1940
     19  C          4.0680   31.1980  -42.2990 C.2    16  GLY16       0.2454
     20  O          3.6090   30.9600  -43.4120 O.2    16  GLY16      -0.2732
     21  N          5.3230   31.5960  -42.1020 N.am   17  PRO17      -0.2717
     22  CA         6.2020   31.9550  -43.2210 C.3    17  PRO17       0.1536
     23  C          6.5010   30.7890  -44.1560 C.2    17  PRO17       0.2599
     24  O          6.4260   30.9600  -45.3840 O.2    17  PRO17      -0.2715
     25  CB         7.4770   32.4830  -42.5380 C.3    17  PRO17       0.0310
     26  CG         7.4290   31.9370  -41.1130 C.3    17  PRO17       0.0237
     27  CD         5.9770   31.7460  -40.7850 C.3    17  PRO17       0.0939
     28  N          6.8280   29.6260  -43.6060 N.am   18  THR18      -0.1937
     29  CA         7.1350   28.4840  -44.4700 C.3    18  THR18       0.2028
     30  C          5.8750   27.9760  -45.1550 C.2    18  THR18       0.2642
     31  O          5.9090   27.6020  -46.3170 O.2    18  THR18      -0.2714
     32  CB         7.8540   27.3900  -43.6820 C.3    18  THR18       0.1808
     33  OG1        9.0480   27.9520  -43.1410 O.3    18  THR18      -0.2208
     34  CG2        8.3740   26.3010  -44.6120 C.3    18  THR18       0.0379
     35  N          4.7590   27.9740  -44.4260 N.am   19  ASP19      -0.1971
     36  CA         3.4810   27.5920  -45.0100 C.3    19  ASP19       0.1709
     37  C          3.1010   28.5170  -46.1730 C.2    19  ASP19       0.2293
     38  O          2.5670   28.0590  -47.1840 O.2    19  ASP19      -0.2864
     39  CB         2.3860   27.5980  -43.9420 C.3    19  ASP19       0.1436
     40  CG         1.0940   27.0090  -44.4430 C.2    19  ASP19       0.3671
     41  OD1        1.0840   25.8130  -44.8170 O.co2  19  ASP19      -0.2456
     42  OD2        0.0490   27.6820  -44.5110 O.co2  19  ASP19      -0.2456
     43  N         13.4590   24.9190  -44.0000 N.3    66  HIS66      -0.1241
     44  CA        14.3940   26.0120  -44.1410 C.3    66  HIS66       0.1621
     45  C         15.7130   25.7330  -43.4350 C.2    66  HIS66       0.2264
     46  O         15.9920   24.5980  -43.0480 O.2    66  HIS66      -0.2867
     47  CB        13.7650   27.3230  -43.6660 C.3    66  HIS66       0.0745
     48  CG        13.3220   27.3140  -42.2320 C.ar   66  HIS66       0.0817
     49  ND1       14.1130   26.8550  -41.2010 N.ar   66  HIS66      -0.2268
     50  CD2       12.1750   27.7460  -41.6610 C.ar   66  HIS66       0.1154
     51  CE1       13.4670   26.9990  -40.0540 C.ar   66  HIS66       0.1986
     52  NE2       12.2880   27.5420  -40.3080 N.ar   66  HIS66      -0.2212
     53  N          9.8750   29.8290  -32.6450 N.3   129  ALA129     -0.1245
     54  CA         9.1320   28.6350  -33.0410 C.3   129  ALA129      0.1562
     55  C          9.8610   27.3520  -32.6440 C.2   129  ALA129      0.2260
     56  O          9.8060   26.3460  -33.3640 O.2   129  ALA129     -0.2867
     57  CB         8.8210   28.6690  -34.5550 C.3   129  ALA129      0.0290
     58  N         14.2780   26.4620  -34.9440 N.3   133  ALA133     -0.1231
     59  CA        13.5570   27.3910  -35.8150 C.3   133  ALA133      0.1694
     60  C         14.4300   28.5540  -36.2960 C.2   133  ALA133      0.2592
     61  O         15.4770   28.8370  -35.7130 O.2   133  ALA133     -0.2718
     62  CB        12.3300   27.9310  -35.0850 C.3   133  ALA133      0.0304
     63  N         13.9830   29.2280  -37.3560 N.am  134  ALA134     -0.1966
     64  CA        14.6490   30.4270  -37.8640 C.3   134  ALA134      0.1728
     65  C         14.6090   31.5310  -36.8130 C.2   134  ALA134      0.2616
     66  O         15.6110   32.2190  -36.5670 O.2   134  ALA134     -0.2715
     67  CB        13.9730   30.8960  -39.1700 C.3   134  ALA134      0.0334
     68  N         13.4390   31.6930  -36.1940 N.am  135  SER135     -0.1950
     69  CA        13.2540   32.6580  -35.1050 C.3   135  SER135      0.1924
     70  C         14.1120   32.3450  -33.8810 C.2   135  SER135      0.2314
     71  O         14.4970   33.2560  -33.1440 O.2   135  SER135     -0.2863
     72  CB        11.7760   32.7470  -34.7210 C.3   135  SER135      0.2116
     73  OG        11.2330   31.4570  -34.4710 O.3   135  SER135     -0.2180
     74  N          5.1510   27.4110  -34.5620 N.3   156  GLY156     -0.1210
     75  CA         5.4030   28.1780  -35.7700 C.3   156  GLY156      0.1956
     76  C          5.3080   29.6420  -35.4130 C.2   156  GLY156      0.2613
     77  O          4.8440   29.9790  -34.3210 O.2   156  GLY156     -0.2717
     78  N          5.7430   30.5330  -36.3020 N.am  157  THR157     -0.1938
     79  CA         5.5770   31.9500  -35.9720 C.3   157  THR157      0.2028
     80  C          4.1890   32.4850  -36.3050 C.2   157  THR157      0.2642
     81  O          3.9010   33.6350  -36.0040 O.2   157  THR157     -0.2714
     82  CB         6.6840   32.8520  -36.5560 C.3   157  THR157      0.1808
     83  OG1        6.8480   32.5820  -37.9550 O.3   157  THR157     -0.2208
     84  CG2        8.0440   32.5270  -35.9250 C.3   157  THR157      0.0379
     85  N          3.3290   31.6720  -36.9220 N.am  158  ALA158     -0.1977
     86  CA         1.9160   32.0670  -37.0370 C.3   158  ALA158      0.1597
     87  C          1.2650   32.1630  -35.6350 C.2   158  ALA158      0.2287
     88  O          0.7720   33.2360  -35.2750 O.2   158  ALA158     -0.2864
     89  CB         1.1230   31.1410  -37.9820 C.3   158  ALA158      0.0319
     90  N         11.5110   37.3570  -36.9580 N.3   172  ASP172     -0.1225
     91  CA        10.6600   36.5120  -37.7960 C.3   172  ASP172      0.1805
     92  C         10.8450   36.9040  -39.2710 C.2   172  ASP172      0.2597
     93  O         11.3520   37.9880  -39.5830 O.2   172  ASP172     -0.2718
     94  CB         9.2010   36.6520  -37.3020 C.3   172  ASP172      0.1424
     95  CG         8.1990   35.7140  -37.9940 C.2   172  ASP172      0.3668
     96  OD1        8.5520   34.6930  -38.6390 O.co2 172  ASP172     -0.2456
     97  OD2        6.9770   35.9490  -37.9090 O.co2 172  ASP172     -0.2456
     98  N         10.4750   35.9990  -40.1670 N.am  173  GLN173     -0.1979
     99  CA        10.7140   36.1770  -41.6050 C.3   173  GLN173      0.1601
    100  C          9.7170   37.1280  -42.2640 C.2   173  GLN173      0.2287
    101  O          8.5570   37.1820  -41.8710 O.2   173  GLN173     -0.2864
    102  CB        10.6450   34.8170  -42.2980 C.3   173  GLN173      0.0394
    103  CG        11.7310   33.8420  -41.8480 C.3   173  GLN173      0.0908
    104  CD        11.3480   32.4130  -42.1540 C.2   173  GLN173      0.2608
    105  OE1       11.0080   31.6280  -41.2440 O.2   173  GLN173     -0.2717
    106  NE2       11.3900   32.0650  -43.4230 N.am  173  GLN173     -0.0878
@<TRIPOS>BOND
     1    38    37    2
     2    31    30    2
     3    37    36    1
     4    24    23    2
     5    30    29    1
     6    30    35   am
     7    36    35    1
     8    36    39    1
     9    41    40   ar
    10    34    32    1
    11    42    40   ar
    12    29    32    1
    13    29    28    1
    14    40    39    1
    15    23    28   am
    16    23    22    1
    17    44    43    1
    18    44    47    1
    19    44    45    1
    20    32    33    1
    21    47    48    1
    22    45    46    2
    23   106   104   am
    24    20    19    2
    25    22    25    1
    26    22    21    1
    27    25    26    1
    28    19    21   am
    29    19    18    1
    30   102   103    1
    31   102    99    1
    32   100   101    2
    33   100    99    1
    34    48    50   ar
    35    48    49   ar
    36   104   103    1
    37   104   105    2
    38    21    27    1
    39    50    52   ar
    40    99    98    1
    41    17    18    1
    42    49    51   ar
    43    26    27    1
    44    52    51   ar
    45    98    92   am
    46     4     3    2
    47    15    14    2
    48     8    10   ar
    49     8     6   ar
    50     1     2    1
    51    10    11   ar
    52    93    92    2
    53    14    13    1
    54    92    91    1
    55    67    64    1
    56     5     6    1
    57     5     2    1
    58     3     2    1
    59     3    12   am
    60     6     7   ar
    61    96    95   ar
    62    11     9   ar
    63    13    12    1
    64    13    16    1
    65    95    97   ar
    66    95    94    1
    67    89    86    1
    68    83    82    1
    69    64    63    1
    70    64    65    1
    71    91    94    1
    72    91    90    1
    73     7     9   ar
    74    63    60   am
    75    86    85    1
    76    86    87    1
    77    85    80   am
    78    65    66    2
    79    65    68   am
    80    82    79    1
    81    82    84    1
    82    80    81    2
    83    80    79    1
    84    78    79    1
    85    78    76   am
    86    60    59    1
    87    60    61    2
    88    68    69    1
    89    59    62    1
    90    59    58    1
    91    75    76    1
    92    75    74    1
    93    87    88    2
    94    76    77    2
    95    69    72    1
    96    69    70    1
    97    72    73    1
    98    57    54    1
    99    70    71    2
   100    56    55    2
   101    54    53    1
   102    54    55    1
