@<TRIPOS>MOLECULE
tmp/2f62B00.pdb
 81 76 0 0 0
SMALL
GASTEIGER

@<TRIPOS>ATOM
      1  N         -0.7110   21.6660   24.3100 N.3    16  VAL16      -0.1231
      2  CA        -0.5890   22.3750   23.0320 C.3    16  VAL16       0.1692
      3  C         -1.8970   22.3770   22.2200 C.2    16  VAL16       0.2592
      4  O         -2.1240   23.2710   21.3960 O.2    16  VAL16      -0.2718
      5  CB         0.6090   21.8300   22.1900 C.3    16  VAL16       0.0266
      6  CG1        0.4350   20.3510   21.8660 C.3    16  VAL16       0.0020
      7  CG2        0.8080   22.6390   20.9130 C.3    16  VAL16       0.0020
      8  N         -2.7580   21.3920   22.4720 N.am   17  PHE17      -0.1976
      9  CA        -4.0270   21.2690   21.7510 C.3    17  PHE17       0.1639
     10  C         -5.2060   21.9610   22.4420 C.2    17  PHE17       0.2290
     11  O         -6.3180   21.9630   21.9160 O.2    17  PHE17      -0.2864
     12  CB        -4.3470   19.7990   21.4540 C.3    17  PHE17       0.0560
     13  CG        -3.2190   19.0660   20.7810 C.ar   17  PHE17      -0.0200
     14  CD1       -2.7410   19.4800   19.5350 C.ar   17  PHE17      -0.0042
     15  CD2       -2.6200   17.9750   21.3960 C.ar   17  PHE17      -0.0042
     16  CE1       -1.6850   18.8160   18.9140 C.ar   17  PHE17      -0.0003
     17  CE2       -1.5640   17.2950   20.7770 C.ar   17  PHE17      -0.0003
     18  CZ        -1.0970   17.7230   19.5360 C.ar   17  PHE17      -0.0000
     19  N          7.2640   22.9810   23.7940 N.3    41  PRO41      -0.2102
     20  CA         7.1310   22.5650   22.3890 C.3    41  PRO41       0.1504
     21  C          6.8240   23.6770   21.3870 C.2    41  PRO41       0.2576
     22  O          7.2810   23.6000   20.2450 O.2    41  PRO41      -0.2718
     23  CB         5.9730   21.5700   22.4370 C.3    41  PRO41       0.0282
     24  CG         6.1160   20.9440   23.7850 C.3    41  PRO41       0.0208
     25  CD         6.4870   22.0990   24.6850 C.3    41  PRO41       0.0893
     26  N          6.0720   24.6890   21.8140 N.am   42  THR42      -0.1953
     27  CA         5.6420   25.7770   20.9320 C.3    42  THR42       0.1897
     28  C          6.5740   26.9890   20.9300 C.2    42  THR42       0.2313
     29  O          6.3230   27.9600   20.2130 O.2    42  THR42      -0.2863
     30  CB         4.2300   26.2700   21.3060 C.3    42  THR42       0.1794
     31  OG1        4.2240   26.7020   22.6720 O.3    42  THR42      -0.2208
     32  CG2        3.2040   25.1710   21.1050 C.3    42  THR42       0.0378
     33  N          8.1110   28.7510   17.4880 N.3    45  GLU45      -0.1245
     34  CA         7.5500   27.7100   16.6260 C.3    45  GLU45       0.1567
     35  C          7.7410   27.9940   15.1390 C.2    45  GLU45       0.2260
     36  O          7.3940   29.0680   14.6440 O.2    45  GLU45      -0.2867
     37  CB         6.0700   27.4670   16.9450 C.3    45  GLU45       0.0388
     38  CG         5.5280   26.1570   16.3770 C.3    45  GLU45       0.1160
     39  CD         4.1320   25.8130   16.8740 C.2    45  GLU45       0.3649
     40  OE1        3.4330   26.7050   17.3990 O.co2  45  GLU45      -0.2457
     41  OE2        3.7320   24.6380   16.7310 O.co2  45  GLU45      -0.2457
     42  N          9.4440   21.8150   13.2190 N.3    52  ILE52      -0.1231
     43  CA         8.8720   21.7320   14.5590 C.3    52  ILE52       0.1692
     44  C          9.3350   20.4530   15.2540 C.2    52  ILE52       0.2591
     45  O          9.7820   20.4850   16.4050 O.2    52  ILE52      -0.2718
     46  CB         7.3400   21.7980   14.5140 C.3    52  ILE52       0.0266
     47  CG1        6.9040   23.1310   13.9030 C.3    52  ILE52       0.0019
     48  CG2        6.7460   21.6150   15.9110 C.3    52  ILE52       0.0020
     49  CD1        5.4360   23.2140   13.5760 C.3    52  ILE52       0.0001
     50  N          9.2430   19.3340   14.5410 N.am   53  ARG53      -0.1980
     51  CA         9.6640   18.0570   15.0900 C.3    53  ARG53       0.1597
     52  C         11.1420   18.0730   15.4550 C.2    53  ARG53       0.2287
     53  O         11.5120   17.6580   16.5530 O.2    53  ARG53      -0.2864
     54  CB         9.3500   16.9330   14.1060 C.3    53  ARG53       0.0334
     55  CG         9.8700   15.5720   14.5280 C.3    53  ARG53       0.0492
     56  CD         9.4750   14.5370   13.5050 C.3    53  ARG53       0.2205
     57  NE        10.0040   13.2140   13.8190 N.pl3  53  ARG53      -0.0865
     58  CZ        11.2250   12.7980   13.4860 C.cat  53  ARG53       0.5346
     59  NH1       12.0670   13.6010   12.8470 N.pl3  53  ARG53       0.1354
     60  NH2       11.6180   11.5710   13.8080 N.pl3  53  ARG53       0.1354
     61  N         11.8530   20.0640   18.5580 N.3    56  ASN56      -0.1240
     62  CA        11.3930   19.3570   19.7440 C.3    56  ASN56       0.1653
     63  C         12.3100   18.2070   20.1400 C.2    56  ASN56       0.2266
     64  O         12.6110   18.0230   21.3190 O.2    56  ASN56      -0.2867
     65  CB         9.9410   18.9120   19.5890 C.3    56  ASN56       0.1155
     66  CG         8.9740   20.0030   19.9900 C.2    56  ASN56       0.2627
     67  OD1        8.4960   20.0220   21.1160 O.2    56  ASN56      -0.2716
     68  ND2        8.7170   20.9430   19.0860 N.am   56  ASN56      -0.0877
     69  N          1.9110   12.0190   20.5820 N.3    80  GLY80      -0.1225
     70  CA         3.0640   12.9000   20.4020 C.3    80  GLY80       0.1811
     71  C          3.9120   12.8920   21.6550 C.2    80  GLY80       0.2280
     72  O          5.1440   12.8110   21.5980 O.2    80  GLY80      -0.2866
     73  N          7.7810   11.4270   22.4280 N.3    84  GLU84      -0.1245
     74  CA         8.7960   12.2010   23.1340 C.3    84  GLU84       0.1567
     75  C          9.3590   11.4490   24.3340 C.2    84  GLU84       0.2260
     76  O         10.5600   11.5000   24.5990 O.2    84  GLU84      -0.2867
     77  CB         8.2270   13.5720   23.5130 C.3    84  GLU84       0.0388
     78  CG         8.0220   14.4400   22.2730 C.3    84  GLU84       0.1160
     79  CD         6.8230   15.3700   22.3400 C.2    84  GLU84       0.3649
     80  OE1        6.2150   15.5530   23.4250 O.co2  84  GLU84      -0.2457
     81  OE2        6.4820   15.9240   21.2680 O.co2  84  GLU84      -0.2457
@<TRIPOS>BOND
     1    59    58    1
     2    42    43    1
     3    58    60    1
     4    58    57    2
     5    56    57    1
     6    56    55    1
     7    49    47    1
     8    47    46    1
     9    54    55    1
    10    54    51    1
    11    46    43    1
    12    46    48    1
    13    50    51    1
    14    50    44   am
    15    43    44    1
    16    36    35    2
    17    51    52    1
    18    35    34    1
    19    44    45    2
    20    52    53    2
    21    38    39    1
    22    38    37    1
    23    34    37    1
    24    34    33    1
    25    41    39   ar
    26    39    40   ar
    27    61    62    1
    28    16    14   ar
    29    16    18   ar
    30    68    66   am
    31    14    13   ar
    32    18    17   ar
    33    65    62    1
    34    65    66    1
    35    62    63    1
    36    66    67    2
    37    63    64    2
    38    29    28    2
    39    22    21    2
    40    70    69    1
    41    70    71    1
    42    17    15   ar
    43    13    15   ar
    44    13    12    1
    45     7     5    1
    46    28    27    1
    47    27    30    1
    48    27    26    1
    49    32    30    1
    50    81    79   ar
    51    30    31    1
    52    21    26   am
    53    21    20    1
    54     4     3    2
    55    12     9    1
    56    72    71    2
    57     9    10    1
    58     9     8    1
    59     6     5    1
    60    11    10    2
    61     5     2    1
    62     3     8   am
    63     3     2    1
    64    78    79    1
    65    78    77    1
    66    79    80   ar
    67    20    23    1
    68    20    19    1
    69    73    74    1
    70    23    24    1
    71     2     1    1
    72    74    77    1
    73    74    75    1
    74    24    25    1
    75    19    25    1
    76    75    76    2
