@<TRIPOS>MOLECULE
tmp/2f64A01.pdb
 81 76 0 0 0
SMALL
GASTEIGER

@<TRIPOS>ATOM
      1  N        -30.6520    6.8240  -18.8220 N.3    16  VAL16      -0.1231
      2  CA       -30.5540    7.5420  -20.0940 C.3    16  VAL16       0.1692
      3  C        -31.8530    7.5320  -20.9180 C.2    16  VAL16       0.2592
      4  O        -32.0720    8.4200  -21.7450 O.2    16  VAL16      -0.2718
      5  CB       -29.3630    7.0040  -20.9470 C.3    16  VAL16       0.0266
      6  CG1      -29.5540    5.5350  -21.3190 C.3    16  VAL16       0.0020
      7  CG2      -29.1570    7.8490  -22.1970 C.3    16  VAL16       0.0020
      8  N        -32.7110    6.5350  -20.6960 N.am   17  PHE17      -0.1976
      9  CA       -33.9880    6.4400  -21.4150 C.3    17  PHE17       0.1639
     10  C        -35.1490    7.1180  -20.6880 C.2    17  PHE17       0.2290
     11  O        -36.2750    7.1250  -21.1860 O.2    17  PHE17      -0.2864
     12  CB       -34.3280    4.9780  -21.6990 C.3    17  PHE17       0.0560
     13  CG       -33.2230    4.2340  -22.3900 C.ar   17  PHE17      -0.0200
     14  CD1      -32.7910    4.6320  -23.6430 C.ar   17  PHE17      -0.0042
     15  CD2      -32.6110    3.1460  -21.7890 C.ar   17  PHE17      -0.0042
     16  CE1      -31.7700    3.9610  -24.2810 C.ar   17  PHE17      -0.0003
     17  CE2      -31.5860    2.4650  -22.4280 C.ar   17  PHE17      -0.0003
     18  CZ       -31.1650    2.8730  -23.6730 C.ar   17  PHE17      -0.0000
     19  N        -22.7380    7.9830  -19.2490 N.3    41  PRO41      -0.2102
     20  CA       -22.8850    7.6120  -20.6610 C.3    41  PRO41       0.1504
     21  C        -23.2000    8.7490  -21.6400 C.2    41  PRO41       0.2576
     22  O        -22.7960    8.6730  -22.8000 O.2    41  PRO41      -0.2718
     23  CB       -24.0360    6.5980  -20.6300 C.3    41  PRO41       0.0282
     24  CG       -23.9300    5.9820  -19.3040 C.3    41  PRO41       0.0208
     25  CD       -23.5350    7.0910  -18.3840 C.3    41  PRO41       0.0893
     26  N        -23.9020    9.7820  -21.1800 N.am   42  THR42      -0.1953
     27  CA       -24.2920   10.9040  -22.0370 C.3    42  THR42       0.1897
     28  C        -23.2750   12.0550  -22.0670 C.2    42  THR42       0.2313
     29  O        -23.5120   13.0560  -22.7510 O.2    42  THR42      -0.2863
     30  CB       -25.6630   11.4710  -21.6060 C.3    42  THR42       0.1794
     31  OG1      -25.6270   11.8040  -20.2150 O.3    42  THR42      -0.2208
     32  CG2      -26.7660   10.4510  -21.8460 C.3    42  THR42       0.0378
     33  N        -21.6710   13.8090  -25.5840 N.3    45  GLU45      -0.1245
     34  CA       -22.3030   12.8060  -26.4390 C.3    45  GLU45       0.1567
     35  C        -22.1270   13.0990  -27.9260 C.2    45  GLU45       0.2260
     36  O        -22.3570   14.2200  -28.3810 O.2    45  GLU45      -0.2867
     37  CB       -23.7930   12.6880  -26.1150 C.3    45  GLU45       0.0388
     38  CG       -24.4610   11.4620  -26.7150 C.3    45  GLU45       0.1160
     39  CD       -25.9260   11.3610  -26.3510 C.2    45  GLU45       0.3649
     40  OE1      -26.2670   11.6040  -25.1720 O.co2  45  GLU45      -0.2457
     41  OE2      -26.7380   11.0280  -27.2420 O.co2  45  GLU45      -0.2457
     42  N        -20.6720    6.9410  -29.9280 N.3    52  ILE52      -0.1231
     43  CA       -21.2540    6.8770  -28.5880 C.3    52  ILE52       0.1692
     44  C        -20.8200    5.5880  -27.8970 C.2    52  ILE52       0.2591
     45  O        -20.4330    5.5930  -26.7230 O.2    52  ILE52      -0.2718
     46  CB       -22.7990    6.9380  -28.6290 C.3    52  ILE52       0.0266
     47  CG1      -23.2710    8.2780  -29.2040 C.3    52  ILE52       0.0019
     48  CG2      -23.3740    6.7470  -27.2320 C.3    52  ILE52       0.0020
     49  CD1      -24.7380    8.3070  -29.5940 C.3    52  ILE52       0.0001
     50  N        -20.8950    4.4830  -28.6310 N.am   53  ARG53      -0.1980
     51  CA       -20.4820    3.1910  -28.1060 C.3    53  ARG53       0.1597
     52  C        -19.0070    3.1900  -27.7070 C.2    53  ARG53       0.2287
     53  O        -18.6620    2.7630  -26.6050 O.2    53  ARG53      -0.2864
     54  CB       -20.7580    2.0890  -29.1310 C.3    53  ARG53       0.0334
     55  CG       -20.2190    0.7180  -28.7570 C.3    53  ARG53       0.0492
     56  CD       -20.6070   -0.2940  -29.8060 C.3    53  ARG53       0.2205
     57  NE       -20.1040   -1.6300  -29.4970 N.pl3  53  ARG53      -0.0865
     58  CZ       -18.8720   -2.0590  -29.7620 C.cat  53  ARG53       0.5346
     59  NH1      -17.9800   -1.2760  -30.3570 N.pl3  53  ARG53       0.1354
     60  NH2      -18.5290   -3.2950  -29.4340 N.pl3  53  ARG53       0.1354
     61  N        -18.2250    5.1790  -24.6120 N.3    56  ASN56      -0.1240
     62  CA       -18.6780    4.4760  -23.4120 C.3    56  ASN56       0.1653
     63  C        -17.7650    3.3150  -23.0280 C.2    56  ASN56       0.2266
     64  O        -17.4660    3.1210  -21.8510 O.2    56  ASN56      -0.2867
     65  CB       -20.1260    4.0150  -23.5590 C.3    56  ASN56       0.1155
     66  CG       -21.1010    5.0880  -23.1570 C.2    56  ASN56       0.2627
     67  OD1      -21.5740    5.1020  -22.0240 O.2    56  ASN56      -0.2716
     68  ND2      -21.3650    6.0280  -24.0570 N.am   56  ASN56      -0.0877
     69  N        -28.1510   -2.9120  -22.6590 N.3    80  GLY80      -0.1225
     70  CA       -26.9990   -2.0230  -22.8140 C.3    80  GLY80       0.1811
     71  C        -26.1520   -2.0370  -21.5590 C.2    80  GLY80       0.2280
     72  O        -24.9280   -2.1510  -21.6100 O.2    80  GLY80      -0.2866
     73  N        -22.3200   -3.4550  -20.8350 N.3    84  GLU84      -0.1245
     74  CA       -21.3040   -2.6790  -20.1230 C.3    84  GLU84       0.1567
     75  C        -20.7210   -3.4450  -18.9310 C.2    84  GLU84       0.2260
     76  O        -19.5220   -3.3790  -18.6640 O.2    84  GLU84      -0.2867
     77  CB       -21.8940   -1.3380  -19.6910 C.3    84  GLU84       0.0388
     78  CG       -22.1330   -0.4310  -20.8910 C.3    84  GLU84       0.1160
     79  CD       -23.3190    0.4860  -20.7570 C.2    84  GLU84       0.3649
     80  OE1      -23.8730    0.6320  -19.6460 O.co2  84  GLU84      -0.2457
     81  OE2      -23.6990    1.0620  -21.8000 O.co2  84  GLU84      -0.2457
@<TRIPOS>BOND
     1    59    58    1
     2    42    43    1
     3    56    57    1
     4    56    55    1
     5    58    57    2
     6    58    60    1
     7    49    47    1
     8    47    46    1
     9    54    55    1
    10    54    51    1
    11    50    51    1
    12    50    44   am
    13    46    43    1
    14    46    48    1
    15    43    44    1
    16    36    35    2
    17    51    52    1
    18    35    34    1
    19    44    45    2
    20    52    53    2
    21    41    39   ar
    22    38    39    1
    23    38    37    1
    24    34    37    1
    25    34    33    1
    26    39    40   ar
    27    61    62    1
    28    16    18   ar
    29    16    14   ar
    30    68    66   am
    31    18    17   ar
    32    14    13   ar
    33    65    62    1
    34    65    66    1
    35    62    63    1
    36    66    67    2
    37    63    64    2
    38    70    69    1
    39    70    71    1
    40    22    21    2
    41    29    28    2
    42    17    15   ar
    43    13    15   ar
    44    13    12    1
    45     7     5    1
    46    28    27    1
    47    27    30    1
    48    27    26    1
    49    32    30    1
    50    81    79   ar
    51     4     3    2
    52    12     9    1
    53    21    26   am
    54    21    20    1
    55    72    71    2
    56    30    31    1
    57     9     8    1
    58     9    10    1
    59     6     5    1
    60    11    10    2
    61     5     2    1
    62     3     8   am
    63     3     2    1
    64    78    79    1
    65    78    77    1
    66    73    74    1
    67    79    80   ar
    68    20    23    1
    69    20    19    1
    70    23    24    1
    71    74    77    1
    72    74    75    1
    73     2     1    1
    74    24    25    1
    75    19    25    1
    76    75    76    2
