@<TRIPOS>MOLECULE
tmp/2f69A00.pdb
 234 230 0 0 0
SMALL
GASTEIGER

@<TRIPOS>ATOM
      1  N        -36.6570   24.1320    8.7570 N.3   130  TYR130     -0.1241
      2  CA       -36.0860   25.4670    8.5620 C.3   130  TYR130      0.1605
      3  C        -34.6390   25.3410    8.0720 C.2   130  TYR130      0.2264
      4  O        -33.6690   25.3180    8.8360 O.2   130  TYR130     -0.2867
      5  CB       -36.1630   26.2490    9.8720 C.3   130  TYR130      0.0534
      6  CG       -36.1660   27.7440    9.7050 C.ar  130  TYR130     -0.0201
      7  CD1      -37.1280   28.4830   10.3540 C.ar  130  TYR130     -0.0009
      8  CD2      -35.1730   28.4170    8.9900 C.ar  130  TYR130     -0.0009
      9  CE1      -37.1250   29.8810   10.3200 C.ar  130  TYR130      0.0417
     10  CE2      -35.1490   29.8270    8.9510 C.ar  130  TYR130      0.0417
     11  CZ       -36.1050   30.5220    9.6300 C.ar  130  TYR130      0.1957
     12  OH       -36.1520   31.9130    9.6450 O.3   130  TYR130     -0.2866
     13  N        -22.6780   34.4360   13.1670 N.3   137  HIS137     -0.1241
     14  CA       -23.3240   35.4410   14.0060 C.3   137  HIS137      0.1621
     15  C        -22.6930   36.8280   13.7650 C.2   137  HIS137      0.2264
     16  O        -23.4240   37.8140   13.7920 O.2   137  HIS137     -0.2867
     17  CB       -23.1430   35.1030   15.5110 C.3   137  HIS137      0.0745
     18  CG       -24.0020   33.9430   15.9070 C.ar  137  HIS137      0.0817
     19  ND1      -25.3220   34.1230   16.2260 N.ar  137  HIS137     -0.2268
     20  CD2      -23.7450   32.6200   16.0260 C.ar  137  HIS137      0.1154
     21  CE1      -25.8590   32.9330   16.5240 C.ar  137  HIS137      0.1986
     22  NE2      -24.9180   32.0010   16.4200 N.ar  137  HIS137     -0.2212
     23  N        -24.3590   38.4200   10.7670 N.3   140  VAL140     -0.1231
     24  CA       -25.7310   38.7760   10.9970 C.3   140  VAL140      0.1692
     25  C        -25.8730   39.9430   11.9910 C.2   140  VAL140      0.2592
     26  O        -26.6650   40.8760   11.7770 O.2   140  VAL140     -0.2718
     27  CB       -26.4430   37.5220   11.5620 C.3   140  VAL140      0.0266
     28  CG1      -27.7720   37.8490   12.1700 C.3   140  VAL140      0.0020
     29  CG2      -26.5700   36.4900   10.4190 C.3   140  VAL140      0.0020
     30  N        -25.0800   39.9130   13.0550 N.am  141  ASP141     -0.1960
     31  CA       -25.2390   40.9270   14.1050 C.3   141  ASP141      0.1840
     32  C        -24.6740   42.3020   13.6810 C.2   141  ASP141      0.2623
     33  O        -25.0440   43.3390   14.2530 O.2   141  ASP141     -0.2715
     34  CB       -24.5090   40.4260   15.3630 C.3   141  ASP141      0.1450
     35  CG       -25.1950   39.2180   16.0120 C.2   141  ASP141      0.3671
     36  OD1      -26.3400   38.8380   15.5850 O.co2 141  ASP141     -0.2456
     37  OD2      -24.5430   38.6040   16.9220 O.co2 141  ASP141     -0.2456
     38  N        -23.8140   42.2910   12.6690 N.am  142  SER142     -0.1936
     39  CA       -23.0940   43.5140   12.1910 C.3   142  SER142      0.2055
     40  C        -23.7750   44.0780   10.9670 C.2   142  SER142      0.2643
     41  O        -23.1840   44.9220   10.2720 O.2   142  SER142     -0.2714
     42  CB       -21.6880   43.1330   11.6900 C.3   142  SER142      0.2130
     43  OG       -20.9320   42.5520   12.7900 O.3   142  SER142     -0.2179
     44  N        -24.9710   43.6130   10.6180 N.am  143  ARG143     -0.1963
     45  CA       -25.7380   44.1880    9.5240 C.3   143  ARG143      0.1729
     46  C        -27.0950   44.6140   10.0050 C.2   143  ARG143      0.2616
     47  O        -27.5550   44.2280   11.1060 O.2   143  ARG143     -0.2715
     48  CB       -25.8330   43.2340    8.3090 C.3   143  ARG143      0.0348
     49  CG       -26.7560   42.0110    8.5450 C.3   143  ARG143      0.0492
     50  CD       -26.5870   40.9870    7.4570 C.3   143  ARG143      0.2205
     51  NE       -27.5590   39.8740    7.7200 N.pl3 143  ARG143     -0.0865
     52  CZ       -27.7440   38.8250    6.9170 C.cat 143  ARG143      0.5346
     53  NH1      -27.0260   38.6870    5.8030 N.pl3 143  ARG143      0.1354
     54  NH2      -28.7070   37.9260    7.2490 N.pl3 143  ARG143      0.1354
     55  N        -27.8080   45.3160    9.1560 N.am  144  ASP144     -0.1957
     56  CA       -29.0360   45.9150    9.5250 C.3   144  ASP144      0.1840
     57  C        -30.1840   44.8970    9.7280 C.2   144  ASP144      0.2622
     58  O        -30.2480   43.8890    9.0270 O.2   144  ASP144     -0.2715
     59  CB       -29.5270   46.8730    8.4200 C.3   144  ASP144      0.1450
     60  CG       -30.9020   47.4420    8.7560 C.2   144  ASP144      0.3671
     61  OD1      -31.2080   47.6470    9.9470 O.co2 144  ASP144     -0.2456
     62  OD2      -31.7330   47.6200    7.8800 O.co2 144  ASP144     -0.2456
     63  N        -31.1060   45.2250   10.6490 N.am  145  TRP145     -0.1974
     64  CA       -32.2840   44.3690   10.8790 C.3   145  TRP145      0.1640
     65  C        -33.0960   44.1170    9.6110 C.2   145  TRP145      0.2290
     66  O        -33.7250   43.0410    9.4860 O.2   145  TRP145     -0.2864
     67  CB       -33.2390   44.9190   11.9780 C.3   145  TRP145      0.0576
     68  CG       -32.9830   44.4000   13.3260 C.ar  145  TRP145      0.0006
     69  CD1      -32.4690   45.0970   14.4370 C.ar  145  TRP145      0.0946
     70  CD2      -33.2250   43.0650   13.7590 C.ar  145  TRP145      0.0152
     71  NE1      -32.3620   44.2140   15.5090 N.ar  145  TRP145     -0.2442
     72  CE2      -32.8310   42.9710   15.1110 C.ar  145  TRP145      0.0810
     73  CE3      -33.7360   41.9110   13.1070 C.ar  145  TRP145      0.0012
     74  CZ2      -32.9520   41.7700   15.8300 C.ar  145  TRP145      0.0191
     75  CZ3      -33.8400   40.7120   13.8300 C.ar  145  TRP145      0.0001
     76  CH2      -33.4600   40.6570   15.1770 C.ar  145  TRP145      0.0015
     77  N        -32.2880   40.8810    8.2940 N.3   148  ASN148     -0.1225
     78  CA       -32.3220   39.7720    9.3170 C.3   148  ASN148      0.1785
     79  C        -33.7540   39.3430    9.6180 C.2   148  ASN148      0.2598
     80  O        -34.0190   38.9020   10.7540 O.2   148  ASN148     -0.2718
     81  CB       -31.5840   40.2540   10.5740 C.3   148  ASN148      0.1169
     82  CG       -30.0910   40.3260   10.3500 C.2   148  ASN148      0.2627
     83  OD1      -29.5320   39.5220    9.5910 O.2   148  ASN148     -0.2716
     84  ND2      -29.4240   41.3030   10.9980 N.am  148  ASN148     -0.0877
     85  N        -34.6740   39.4430    8.6500 N.am  149  GLY149     -0.1942
     86  CA       -36.0390   38.9620    8.9230 C.3   149  GLY149      0.2014
     87  C        -36.1120   37.4160    9.1160 C.2   149  GLY149      0.2639
     88  O        -37.0220   36.9370    9.8170 O.2   149  GLY149     -0.2714
     89  N        -35.2270   36.6860    8.4370 N.am  150  ASN150     -0.1958
     90  CA       -35.3120   35.2030    8.3260 C.3   150  ASN150      0.1819
     91  C        -34.1410   34.5240    9.0030 C.2   150  ASN150      0.2622
     92  O        -34.0290   33.2980    8.9250 O.2   150  ASN150     -0.2715
     93  CB       -35.3880   34.7640    6.8530 C.3   150  ASN150      0.1195
     94  CG       -36.7010   35.0650    6.2350 C.2   150  ASN150      0.2630
     95  OD1      -37.6330   35.5510    6.9220 O.2   150  ASN150     -0.2716
     96  ND2      -36.8240   34.8100    4.9260 N.am  150  ASN150     -0.0877
     97  N        -33.3030   35.2610    9.7490 N.am  151  THR151     -0.1937
     98  CA       -32.1860   34.6350   10.4070 C.3   151  THR151      0.2028
     99  C        -32.6450   33.8100   11.6320 C.2   151  THR151      0.2642
    100  O        -33.4030   34.3070   12.4770 O.2   151  THR151     -0.2714
    101  CB       -31.1190   35.6670   10.8300 C.3   151  THR151      0.1808
    102  OG1      -31.8390   36.7680   11.4030 O.3   151  THR151     -0.2208
    103  CG2      -30.3610   36.1090    9.5680 C.3   151  THR151      0.0379
    104  N        -32.1180   32.5940   11.7500 N.am  152  LEU152     -0.1963
    105  CA       -32.4600   31.6900   12.8620 C.3   152  LEU152      0.1728
    106  C        -31.1540   31.1330   13.4110 C.2   152  LEU152      0.2616
    107  O        -30.3710   30.5230   12.6860 O.2   152  LEU152     -0.2715
    108  CB       -33.3130   30.5080   12.2780 C.3   152  LEU152      0.0311
    109  CG       -33.5330   29.3470   13.2770 C.3   152  LEU152      0.0022
    110  CD1      -34.3800   29.7480   14.5030 C.3   152  LEU152      0.0001
    111  CD2      -34.2550   28.2150   12.5240 C.3   152  LEU152      0.0001
    112  N        -30.8660   31.4110   14.6970 N.am  153  SER153     -0.1950
    113  CA       -29.6470   30.8700   15.2630 C.3   153  SER153      0.1924
    114  C        -29.7590   29.3150   15.2730 C.2   153  SER153      0.2314
    115  O        -30.7980   28.7660   15.6900 O.2   153  SER153     -0.2863
    116  CB       -29.4730   31.3410   16.7180 C.3   153  SER153      0.2116
    117  OG       -28.2010   30.9040   17.1760 O.3   153  SER153     -0.2180
    118  N        -26.7090   27.3280   16.3260 N.3   155  ASP155     -0.1225
    119  CA       -25.9400   27.0590   17.5150 C.3   155  ASP155      0.1805
    120  C        -25.0200   28.2440   17.6920 C.2   155  ASP155      0.2597
    121  O        -25.2710   29.3170   17.1100 O.2   155  ASP155     -0.2718
    122  CB       -25.2090   25.7110   17.3290 C.3   155  ASP155      0.1424
    123  CG       -24.2650   25.7030   16.1220 C.2   155  ASP155      0.3668
    124  OD1      -23.7610   26.7600   15.7240 O.co2 155  ASP155     -0.2456
    125  OD2      -24.0700   24.6240   15.4770 O.co2 155  ASP155     -0.2456
    126  N        -24.0160   28.1010   18.6010 N.am  156  GLU156     -0.1979
    127  CA       -23.1850   29.2460   18.8780 C.3   156  GLU156      0.1602
    128  C        -22.2790   29.6940   17.7300 C.2   156  GLU156      0.2287
    129  O        -21.7200   30.8150   17.8060 O.2   156  GLU156     -0.2864
    130  CB       -22.3010   28.9690   20.1420 C.3   156  GLU156      0.0415
    131  CG       -21.4240   27.7980   20.1160 C.3   156  GLU156      0.1163
    132  CD       -22.0150   26.4490   20.4210 C.2   156  GLU156      0.3649
    133  OE1      -23.2250   26.2200   20.3830 O.co2 156  GLU156     -0.2457
    134  OE2      -21.1470   25.5590   20.7610 O.co2 156  GLU156     -0.2457
    135  N        -25.7040   30.7040   12.0120 N.3   159  VAL159     -0.1245
    136  CA       -27.0290   31.2190   11.8190 C.3   159  VAL159      0.1561
    137  C        -27.5190   30.7390   10.4510 C.2   159  VAL159      0.2260
    138  O        -26.7530   30.7440    9.4610 O.2   159  VAL159     -0.2867
    139  CB       -27.0430   32.7560   11.8410 C.3   159  VAL159      0.0252
    140  CG1      -28.4410   33.2950   11.5680 C.3   159  VAL159      0.0019
    141  CG2      -26.5240   33.2650   13.1940 C.3   159  VAL159      0.0019
    142  N        -39.2920   29.0750    7.3480 N.3   178  HIS178     -0.1241
    143  CA       -39.1340   30.5380    7.4100 C.3   178  HIS178      0.1621
    144  C        -40.4560   31.2780    7.1400 C.2   178  HIS178      0.2264
    145  O        -40.4750   32.4940    7.2860 O.2   178  HIS178     -0.2867
    146  CB       -38.0570   30.9770    6.3880 C.3   178  HIS178      0.0745
    147  CG       -38.3920   30.5660    5.0080 C.ar  178  HIS178      0.0817
    148  ND1      -38.2950   29.2370    4.6080 N.ar  178  HIS178     -0.2268
    149  CD2      -38.9110   31.2920    3.9650 C.ar  178  HIS178      0.1154
    150  CE1      -38.6890   29.1740    3.3320 C.ar  178  HIS178      0.1986
    151  NE2      -39.0740   30.4060    2.9220 N.ar  178  HIS178     -0.2212
    152  N        -43.2660   30.6780    8.9000 N.3   180  ALA180     -0.1245
    153  CA       -44.1130   30.7860   10.1120 C.3   180  ALA180      0.1562
    154  C        -43.8990   32.1640   10.8050 C.2   180  ALA180      0.2260
    155  O        -42.7420   32.5380   11.0820 O.2   180  ALA180     -0.2867
    156  CB       -43.7420   29.6490   11.1020 C.3   180  ALA180      0.0290
    157  N        -39.5940   26.1160   17.6430 N.3   190  TYR190     -0.1241
    158  CA       -38.4060   25.6510   16.8960 C.3   190  TYR190      0.1605
    159  C        -37.7120   24.5410   17.6840 C.2   190  TYR190      0.2264
    160  O        -37.4940   24.6880   18.9170 O.2   190  TYR190     -0.2867
    161  CB       -37.3800   26.7870   16.6440 C.3   190  TYR190      0.0534
    162  CG       -37.9050   27.9160   15.7830 C.ar  190  TYR190     -0.0201
    163  CD1      -37.9110   29.2240   16.2760 C.ar  190  TYR190     -0.0009
    164  CD2      -38.3680   27.7090   14.4910 C.ar  190  TYR190     -0.0009
    165  CE1      -38.3420   30.2890   15.5110 C.ar  190  TYR190      0.0417
    166  CE2      -38.8020   28.7730   13.7150 C.ar  190  TYR190      0.0417
    167  CZ       -38.7680   30.0690   14.2170 C.ar  190  TYR190      0.1957
    168  OH       -39.2100   31.1150   13.4270 O.3   190  TYR190     -0.2866
    169  N        -33.0630   23.1970   12.0530 N.3   202  LYS202     -0.1245
    170  CA       -34.1530   23.2040   13.0170 C.3   202  LYS202      0.1561
    171  C        -35.4620   22.9030   12.2670 C.2   202  LYS202      0.2260
    172  O        -35.5120   22.9740   11.0440 O.2   202  LYS202     -0.2867
    173  CB       -34.2700   24.5510   13.7950 C.3   202  LYS202      0.0271
    174  CG       -33.1270   24.6030   14.8640 C.3   202  LYS202      0.0035
    175  CD       -33.1480   25.9530   15.6250 C.3   202  LYS202      0.0206
    176  CE       -32.1580   25.8820   16.8300 C.3   202  LYS202      0.1093
    177  NZ       -32.1300   27.2160   17.5480 N.3   202  LYS202     -0.1314
    178  N        -42.5320   31.3280   18.7570 N.3   219  ALA219     -0.1231
    179  CA       -41.8860   32.4950   19.3710 C.3   219  ALA219      0.1694
    180  C        -40.5210   32.7000   18.7410 C.2   219  ALA219      0.2592
    181  O        -39.6720   31.7750   18.7480 O.2   219  ALA219     -0.2718
    182  CB       -41.7690   32.3010   20.9010 C.3   219  ALA219      0.0304
    183  N        -40.2600   33.9120   18.2280 N.am  220  TYR220     -0.1962
    184  CA       -38.9500   34.1690   17.5840 C.3   220  TYR220      0.1771
    185  C        -37.8450   34.2750   18.6070 C.2   220  TYR220      0.2620
    186  O        -36.6680   34.0580   18.2730 O.2   220  TYR220     -0.2715
    187  CB       -39.0170   35.4510   16.7370 C.3   220  TYR220      0.0574
    188  CG       -39.7580   35.2690   15.4160 C.ar  220  TYR220     -0.0198
    189  CD1      -40.4180   34.0510   15.0460 C.ar  220  TYR220     -0.0009
    190  CD2      -39.7470   36.3370   14.4890 C.ar  220  TYR220     -0.0009
    191  CE1      -41.0590   33.9180   13.8280 C.ar  220  TYR220      0.0417
    192  CE2      -40.3970   36.2090   13.2590 C.ar  220  TYR220      0.0417
    193  CZ       -41.0460   34.9900   12.9330 C.ar  220  TYR220      0.1957
    194  OH       -41.6930   34.9780   11.6910 O.3   220  TYR220     -0.2866
    195  N        -38.1740   34.6120   19.8880 N.am  221  GLY221     -0.1940
    196  CA       -37.0890   34.4920   20.9300 C.3   221  GLY221      0.2014
    197  C        -35.9450   35.4920   20.7720 C.2   221  GLY221      0.2639
    198  O        -34.7860   35.1310   21.0120 O.2   221  GLY221     -0.2714
    199  N        -36.2610   36.7250   20.4220 N.am  222  TYR222     -0.1959
    200  CA       -35.2030   37.7780   20.4180 C.3   222  TYR222      0.1771
    201  C        -34.8910   38.1650   21.8670 C.2   222  TYR222      0.2619
    202  O        -35.6950   37.8850   22.7740 O.2   222  TYR222     -0.2715
    203  CB       -35.7080   38.9970   19.6350 C.3   222  TYR222      0.0574
    204  CG       -35.8960   38.6820   18.1370 C.ar  222  TYR222     -0.0198
    205  CD1      -37.0510   39.0830   17.4790 C.ar  222  TYR222     -0.0009
    206  CD2      -34.9170   37.9670   17.4190 C.ar  222  TYR222     -0.0009
    207  CE1      -37.2800   38.8350   16.0880 C.ar  222  TYR222      0.0417
    208  CE2      -35.1380   37.6660   16.0530 C.ar  222  TYR222      0.0417
    209  CZ       -36.3130   38.1160   15.4180 C.ar  222  TYR222      0.1957
    210  OH       -36.5530   37.8470   14.1010 O.3   222  TYR222     -0.2866
    211  N        -33.7190   38.7280   22.1150 N.am  223  ASP223     -0.1971
    212  CA       -33.2910   39.0680   23.4870 C.3   223  ASP223      0.1709
    213  C        -34.0410   40.3250   23.9020 C.2   223  ASP223      0.2293
    214  O        -33.8730   41.4010   23.3010 O.2   223  ASP223     -0.2864
    215  CB       -31.7570   39.2640   23.5280 C.3   223  ASP223      0.1436
    216  CG       -31.1920   39.3890   24.9700 C.2   223  ASP223      0.3671
    217  OD1      -29.9570   39.2370   25.1200 O.co2 223  ASP223     -0.2456
    218  OD2      -32.0060   39.5710   25.8940 O.co2 223  ASP223     -0.2456
    219  N        -30.8120   42.7500   26.3170 N.3   226  PRO226     -0.2168
    220  CA       -29.4130   42.4810   26.1250 C.3   226  PRO226      0.1057
    221  C        -28.5830   43.4930   26.9600 C.3   226  PRO226      0.1993
    222  O        -27.6710   42.9980   27.5810 O.3   226  PRO226     -0.2189
    223  CB       -29.2030   42.7000   24.6250 C.3   226  PRO226      0.0215
    224  CG       -30.3250   43.5370   24.1720 C.3   226  PRO226      0.0203
    225  CD       -31.4350   43.4510   25.1820 C.3   226  PRO226      0.0888
    226  N        -33.3680   43.7960   21.6140 N.3   228  GLU228     -0.1245
    227  CA       -32.6680   43.8270   20.3140 C.3   228  GLU228      0.1567
    228  C        -33.5790   43.0880   19.3330 C.2   228  GLU228      0.2260
    229  O        -33.5920   41.8400   19.3210 O.2   228  GLU228     -0.2867
    230  CB       -31.2820   43.1660   20.3960 C.3   228  GLU228      0.0388
    231  CG       -30.4730   43.1890   19.0460 C.3   228  GLU228      0.1160
    232  CD       -30.2040   44.6360   18.6100 C.2   228  GLU228      0.3649
    233  OE1      -29.4380   45.3290   19.3370 O.co2 228  GLU228     -0.2457
    234  OE2      -30.7820   45.1120   17.5960 O.co2 228  GLU228     -0.2457
@<TRIPOS>BOND
     1   151   150   ar
     2   151   149   ar
     3   150   148   ar
     4   149   147   ar
     5   148   147   ar
     6    96    94   am
     7   147   146    1
     8    53    52    1
     9    94    93    1
    10    94    95    2
    11   146   143    1
    12    93    90    1
    13    52    54    1
    14    52    51    2
    15   144   145    2
    16   144   143    1
    17   142   143    1
    18    50    51    1
    19    50    49    1
    20    62    60   ar
    21     3     2    1
    22     3     4    2
    23    77    78    1
    24    48    49    1
    25    48    45    1
    26    90    89    1
    27    90    91    1
    28    59    60    1
    29    59    56    1
    30    89    87   am
    31     2     1    1
    32     2     5    1
    33    85    86    1
    34    85    79   am
    35    60    61   ar
    36   152   153    1
    37    86    87    1
    38    92    91    2
    39    10     8   ar
    40    10    11   ar
    41     8     6   ar
    42    91    97   am
    43    58    57    2
    44    87    88    2
    45    55    56    1
    46    55    46   am
    47    78    79    1
    48    78    81    1
    49   138   137    2
    50    66    65    2
    51    45    46    1
    52    45    44    1
    53    56    57    1
    54   103   101    1
    55    83    82    2
    56    65    64    1
    57    79    80    2
    58    11    12    1
    59    11     9   ar
    60     6     5    1
    61     6     7   ar
    62    57    63   am
    63    97    98    1
    64    46    47    2
    65   153   154    1
    66   153   156    1
    67    41    40    2
    68     9     7   ar
    69    82    81    1
    70    82    84   am
    71    98   101    1
    72    98    99    1
    73    29    27    1
    74   137   136    1
    75    44    40   am
    76    63    64    1
    77    23    24    1
    78   154   155    2
    79   101   102    1
    80    64    67    1
    81    40    39    1
    82    24    27    1
    83    24    25    1
    84   172   171    2
    85    27    28    1
    86   140   139    1
    87    99   104   am
    88    99   100    2
    89    42    39    1
    90    42    43    1
    91   194   193    1
    92   104   105    1
    93    26    25    2
    94   136   139    1
    95   136   135    1
    96   139   141    1
    97    67    68    1
    98    25    30   am
    99   169   170    1
   100    39    38    1
   101   171   170    1
   102   108   105    1
   103   108   109    1
   104   111   109    1
   105    38    32   am
   106   107   106    2
   107   105   106    1
   108   193   192   ar
   109   193   191   ar
   110   170   173    1
   111    30    31    1
   112    73    70   ar
   113    73    75   ar
   114    13    14    1
   115   192   190   ar
   116   109   110    1
   117    68    70   ar
   118    68    69   ar
   119   106   112   am
   120   168   167    1
   121    32    31    1
   122    32    33    2
   123   166   167   ar
   124   166   164   ar
   125    70    72   ar
   126    15    16    2
   127    15    14    1
   128   173   174    1
   129   191   189   ar
   130    75    76   ar
   131    14    17    1
   132   210   209    1
   133    31    34    1
   134   167   165   ar
   135    69    71   ar
   136   190   188   ar
   137   164   162   ar
   138   112   113    1
   139   174   175    1
   140   189   188   ar
   141    72    71   ar
   142    72    74   ar
   143    76    74   ar
   144   113   114    1
   145   113   116    1
   146   114   115    2
   147    34    35    1
   148   188   187    1
   149   209   208   ar
   150   209   207   ar
   151   125   123   ar
   152   165   163   ar
   153    17    18    1
   154    36    35   ar
   155   175   176    1
   156   124   123   ar
   157   162   163   ar
   158   162   161    1
   159    18    20   ar
   160    18    19   ar
   161    35    37   ar
   162    20    22   ar
   163   208   206   ar
   164   207   205   ar
   165   123   122    1
   166    19    21   ar
   167   118   119    1
   168    22    21   ar
   169   161   158    1
   170   116   117    1
   171   187   184    1
   172   176   177    1
   173   158   157    1
   174   158   159    1
   175   121   120    2
   176   122   119    1
   177   206   204   ar
   178   205   204   ar
   179   119   120    1
   180   184   183    1
   181   184   185    1
   182   234   232   ar
   183   159   160    2
   184   120   126   am
   185   128   129    2
   186   128   127    1
   187   204   203    1
   188   183   180   am
   189   186   185    2
   190   126   127    1
   191   185   195   am
   192   232   231    1
   193   232   233   ar
   194   180   181    2
   195   180   179    1
   196   178   179    1
   197   127   130    1
   198   231   230    1
   199   229   228    2
   200   228   227    1
   201   179   182    1
   202   203   200    1
   203   195   196    1
   204   131   130    1
   205   131   132    1
   206   227   230    1
   207   227   226    1
   208   133   132   ar
   209   200   199    1
   210   200   201    1
   211   132   134   ar
   212   199   197   am
   213   197   196    1
   214   197   198    2
   215   201   211   am
   216   201   202    2
   217   211   212    1
   218   214   213    2
   219   212   215    1
   220   212   213    1
   221   215   216    1
   222   224   223    1
   223   224   225    1
   224   223   220    1
   225   216   217   ar
   226   216   218   ar
   227   225   219    1
   228   220   219    1
   229   220   221    1
   230   221   222    1
