@<TRIPOS>MOLECULE
tmp/2f6dA00.pdb
 192 192 0 0 0
SMALL
GASTEIGER

@<TRIPOS>ATOM
      1  N          2.0640    3.0230   -3.5060 N.3    54  ALA54      -0.1245
      2  CA         3.3540    2.3370   -3.6150 C.3    54  ALA54       0.1562
      3  C          3.6920    1.6680   -2.2750 C.2    54  ALA54       0.2260
      4  O          4.3190    0.6000   -2.2510 O.2    54  ALA54      -0.2867
      5  CB         4.4340    3.2970   -4.0510 C.3    54  ALA54       0.0290
      6  N          5.6790    7.5200    0.8620 N.3    63  TYR63      -0.1241
      7  CA         5.3680    6.8650   -0.4070 C.3    63  TYR63       0.1605
      8  C          3.8600    6.7070   -0.6470 C.2    63  TYR63       0.2264
      9  O          3.4340    5.9020   -1.4680 O.2    63  TYR63      -0.2867
     10  CB         6.0230    5.4760   -0.4510 C.3    63  TYR63       0.0534
     11  CG         7.4500    5.4420   -0.9880 C.ar   63  TYR63      -0.0201
     12  CD1        8.3690    6.4640   -0.7210 C.ar   63  TYR63      -0.0009
     13  CD2        7.8770    4.3660   -1.7440 C.ar   63  TYR63      -0.0009
     14  CE1        9.6710    6.3840   -1.1880 C.ar   63  TYR63       0.0417
     15  CE2        9.1650    4.2860   -2.2140 C.ar   63  TYR63       0.0417
     16  CZ        10.0750    5.2820   -1.9280 C.ar   63  TYR63       0.1957
     17  OH        11.3680    5.1980   -2.4210 O.3    63  TYR63      -0.2866
     18  N          2.0130    5.8090   -8.2680 N.3    67  TRP67      -0.1241
     19  CA         2.9260    5.9030   -9.4130 C.3    67  TRP67       0.1605
     20  C          2.4030    5.0550  -10.5730 C.2    67  TRP67       0.2264
     21  O          1.9730    3.9160  -10.3780 O.2    67  TRP67      -0.2867
     22  CB         4.2960    5.3540   -9.0370 C.3    67  TRP67       0.0550
     23  CG         5.2650    6.2630   -8.3510 C.ar   67  TRP67       0.0003
     24  CD1        6.3430    6.8460   -8.9040 C.ar   67  TRP67       0.0946
     25  CD2        5.3230    6.5650   -6.9440 C.ar   67  TRP67       0.0152
     26  NE1        7.0710    7.5110   -7.9450 N.ar   67  TRP67      -0.2442
     27  CE2        6.4670    7.3520   -6.7320 C.ar   67  TRP67       0.0810
     28  CE3        4.5140    6.2500   -5.8370 C.ar   67  TRP67       0.0012
     29  CZ2        6.8340    7.8370   -5.4690 C.ar   67  TRP67       0.0191
     30  CZ3        4.8750    6.7380   -4.5790 C.ar   67  TRP67       0.0001
     31  CH2        6.0220    7.5090   -4.4070 C.ar   67  TRP67       0.0015
     32  N          4.0000    3.5900  -12.9690 N.3    69  ARG69      -0.1231
     33  CA         4.8230    2.3870  -13.0470 C.3    69  ARG69       0.1694
     34  C          4.4290    1.3340  -12.0030 C.2    69  ARG69       0.2592
     35  O          4.1100    0.2140  -12.3620 O.2    69  ARG69      -0.2718
     36  CB         6.3110    2.7690  -12.9450 C.3    69  ARG69       0.0321
     37  CG         7.2630    1.6010  -12.6170 C.3    69  ARG69       0.0489
     38  CD         8.7210    2.0160  -12.4510 C.3    69  ARG69       0.2205
     39  NE         8.8230    3.1820  -11.5660 N.pl3  69  ARG69      -0.0865
     40  CZ         8.9280    4.4480  -11.9700 C.cat  69  ARG69       0.5346
     41  NH1        9.0020    4.7510  -13.2630 N.pl3  69  ARG69       0.1354
     42  NH2        8.9390    5.4280  -11.0660 N.pl3  69  ARG69       0.1354
     43  N          4.4690    1.6760  -10.7090 N.am   70  ASP70      -0.1974
     44  CA         4.1630    0.6890   -9.6760 C.3    70  ASP70       0.1709
     45  C          2.7660    0.1290   -9.8410 C.2    70  ASP70       0.2293
     46  O          2.5400   -1.0650   -9.6480 O.2    70  ASP70      -0.2864
     47  CB         4.2610    1.2960   -8.2820 C.3    70  ASP70       0.1436
     48  CG         5.6410    1.8070   -7.9470 C.2    70  ASP70       0.3671
     49  OD1        6.1400    1.4910   -6.8380 O.co2  70  ASP70      -0.2456
     50  OD2        6.2680    2.5550   -8.7150 O.co2  70  ASP70      -0.2456
     51  N          8.3770   19.3760   -7.0670 N.3   138  ALA138     -0.1231
     52  CA         9.5030   19.0190   -7.9150 C.3   138  ALA138      0.1694
     53  C          9.6450   17.5160   -7.9610 C.2   138  ALA138      0.2592
     54  O          9.4850   16.8270   -6.9590 O.2   138  ALA138     -0.2718
     55  CB        10.8010   19.6460   -7.3950 C.3   138  ALA138      0.0304
     56  N          9.9390   17.0200   -9.1500 N.am  139  TRP139     -0.1962
     57  CA        10.0070   15.5740   -9.3600 C.3   139  TRP139      0.1771
     58  C         10.7260   15.3140  -10.6640 C.2   139  TRP139      0.2620
     59  O         10.7800   16.1740  -11.5330 O.2   139  TRP139     -0.2715
     60  CB         8.5840   14.9630   -9.3960 C.3   139  TRP139      0.0590
     61  CG         8.5780   13.5090   -8.9630 C.ar  139  TRP139      0.0006
     62  CD1        8.5500   12.4080   -9.7730 C.ar  139  TRP139      0.0946
     63  CD2        8.6610   13.0270   -7.6250 C.ar  139  TRP139      0.0152
     64  NE1        8.6110   11.2640   -9.0090 N.ar  139  TRP139     -0.2442
     65  CE2        8.6980   11.6140   -7.6860 C.ar  139  TRP139      0.0810
     66  CE3        8.7390   13.6430   -6.3800 C.ar  139  TRP139      0.0012
     67  CZ2        8.7980   10.8220   -6.5560 C.ar  139  TRP139      0.0191
     68  CZ3        8.8290   12.8500   -5.2470 C.ar  139  TRP139      0.0001
     69  CH2        8.8780   11.4430   -5.3470 C.ar  139  TRP139      0.0015
     70  N         11.2660   14.1020  -10.8110 N.am  140  GLY140     -0.1954
     71  CA        11.9510   13.7310  -12.0230 C.3   140  GLY140      0.1869
     72  C         10.9510   13.3170  -13.0760 C.2   140  GLY140      0.2309
     73  O         10.6680   12.1230  -13.2470 O.2   140  GLY140     -0.2863
     74  N         13.1450   10.8630  -17.5870 N.3   206  PHE206     -0.1241
     75  CA        13.8320   10.2120  -16.5010 C.3   206  PHE206      0.1605
     76  C         13.6500    8.6890  -16.5630 C.2   206  PHE206      0.2264
     77  O         12.7090    8.1840  -17.1500 O.2   206  PHE206     -0.2867
     78  CB        13.2950   10.7530  -15.1780 C.3   206  PHE206      0.0534
     79  CG        13.8630   12.0900  -14.8070 C.ar  206  PHE206     -0.0203
     80  CD1       13.3400   13.2520  -15.3440 C.ar  206  PHE206     -0.0042
     81  CD2       14.9070   12.1780  -13.9190 C.ar  206  PHE206     -0.0042
     82  CE1       13.8790   14.4810  -15.0130 C.ar  206  PHE206     -0.0003
     83  CE2       15.4550   13.4060  -13.5810 C.ar  206  PHE206     -0.0003
     84  CZ        14.9200   14.5700  -14.1240 C.ar  206  PHE206     -0.0000
     85  N         13.4110    4.7170  -14.7340 N.3   208  LEU208     -0.1231
     86  CA        12.5040    4.0900  -13.7880 C.3   208  LEU208      0.1693
     87  C         12.8360    4.3950  -12.3220 C.2   208  LEU208      0.2592
     88  O         11.9490    4.3990  -11.4840 O.2   208  LEU208     -0.2718
     89  CB        12.4090    2.5640  -14.0220 C.3   208  LEU208      0.0284
     90  CG        13.4750    1.6980  -13.3570 C.3   208  LEU208      0.0019
     91  CD1       13.1100    0.2140  -13.4290 C.3   208  LEU208      0.0001
     92  CD2       14.8630    1.9420  -13.9720 C.3   208  LEU208      0.0001
     93  N         14.1060    4.6410  -12.0260 N.am  209  TRP209     -0.1962
     94  CA        14.5160    5.0070  -10.6860 C.3   209  TRP209      0.1771
     95  C         14.3710    6.5150  -10.3990 C.2   209  TRP209      0.2620
     96  O         14.6600    6.9640   -9.3000 O.2   209  TRP209     -0.2715
     97  CB        15.9420    4.5620  -10.3900 C.3   209  TRP209      0.0590
     98  CG        16.3160    3.1000  -10.6960 C.ar  209  TRP209      0.0006
     99  CD1       17.4790    2.6940  -11.2590 C.ar  209  TRP209      0.0946
    100  CD2       15.6130    1.8920  -10.3250 C.ar  209  TRP209      0.0152
    101  NE1       17.5230    1.3240  -11.3500 N.ar  209  TRP209     -0.2442
    102  CE2       16.4040    0.8010  -10.7650 C.ar  209  TRP209      0.0810
    103  CE3       14.3870    1.6160   -9.7190 C.ar  209  TRP209      0.0012
    104  CZ2       16.0200   -0.5330  -10.6020 C.ar  209  TRP209      0.0191
    105  CZ3       14.0030    0.2680   -9.5490 C.ar  209  TRP209      0.0001
    106  CH2       14.8350   -0.7770   -9.9870 C.ar  209  TRP209      0.0015
    107  N         13.9180    7.2820  -11.3910 N.am  210  GLU210     -0.1963
    108  CA        13.4760    8.6770  -11.2330 C.3   210  GLU210      0.1733
    109  C         14.6040    9.6780  -11.0140 C.2   210  GLU210      0.2616
    110  O         14.4020   10.7460  -10.3860 O.2   210  GLU210     -0.2715
    111  CB        12.4400    8.8060  -10.0950 C.3   210  GLU210      0.0429
    112  CG        11.4300    7.6680  -10.0010 C.3   210  GLU210      0.1163
    113  CD        10.2510    8.0350   -9.1430 C.2   210  GLU210      0.3649
    114  OE1       10.2930    7.7760   -7.9200 O.co2 210  GLU210     -0.2457
    115  OE2        9.2880    8.5950   -9.7000 O.co2 210  GLU210     -0.2457
    116  N         15.7830    9.3540  -11.5370 N.am  211  GLU211     -0.1977
    117  CA        17.0130   10.0620  -11.1820 C.3   211  GLU211      0.1602
    118  C         17.8390   10.6380  -12.3110 C.2   211  GLU211      0.2287
    119  O         18.5660   11.6170  -12.0860 O.2   211  GLU211     -0.2864
    120  CB        17.9110    9.1600  -10.3460 C.3   211  GLU211      0.0415
    121  CG        17.3380    8.8680   -8.9640 C.3   211  GLU211      0.1163
    122  CD        17.9160    7.6330   -8.2930 C.2   211  GLU211      0.3649
    123  OE1       18.4430    6.7210   -8.9860 O.co2 211  GLU211     -0.2457
    124  OE2       17.8280    7.5500   -7.0520 O.co2 211  GLU211     -0.2457
    125  N         20.1970   -1.5970   -7.0030 N.3   345  ARG345     -0.1245
    126  CA        19.7870   -0.9840   -8.2630 C.3   345  ARG345      0.1563
    127  C         20.9430   -0.8080   -9.2250 C.2   345  ARG345      0.2260
    128  O         20.9000   -1.2920  -10.3630 O.2   345  ARG345     -0.2867
    129  CB        19.0940    0.3480   -8.0120 C.3   345  ARG345      0.0307
    130  CG        17.8560    0.2240   -7.1380 C.3   345  ARG345      0.0489
    131  CD        16.9570    1.4540   -7.1070 C.3   345  ARG345      0.2205
    132  NE        17.7060    2.6040   -6.5920 N.pl3 345  ARG345     -0.0865
    133  CZ        17.2320    3.8320   -6.5030 C.cat 345  ARG345      0.5346
    134  NH1       15.9770    4.0840   -6.8360 N.pl3 345  ARG345      0.1354
    135  NH2       18.0090    4.8260   -6.0860 N.pl3 345  ARG345      0.1354
    136  N         20.9820    6.4630   -2.8270 N.3   351  TYR351     -0.1241
    137  CA        19.6940    6.5630   -2.1610 C.3   351  TYR351      0.1605
    138  C         19.5620    5.5090   -1.0840 C.2   351  TYR351      0.2264
    139  O         19.6440    4.3240   -1.3640 O.2   351  TYR351     -0.2867
    140  CB        18.5670    6.4330   -3.1960 C.3   351  TYR351      0.0534
    141  CG        17.1480    6.5080   -2.6580 C.ar  351  TYR351     -0.0201
    142  CD1       16.7200    7.5890   -1.9140 C.ar  351  TYR351     -0.0009
    143  CD2       16.2130    5.5130   -2.9570 C.ar  351  TYR351     -0.0009
    144  CE1       15.4180    7.6640   -1.4510 C.ar  351  TYR351      0.0417
    145  CE2       14.8980    5.5750   -2.5060 C.ar  351  TYR351      0.0417
    146  CZ        14.5020    6.6710   -1.7660 C.ar  351  TYR351      0.1957
    147  OH        13.2190    6.7780   -1.3110 O.3   351  TYR351     -0.2866
    148  N         17.9290   -4.0580   -2.6820 N.3   362  TRP362     -0.1241
    149  CA        16.4730   -3.9250   -2.7320 C.3   362  TRP362      0.1605
    150  C         15.8200   -5.2760   -2.7310 C.2   362  TRP362      0.2264
    151  O         16.2730   -6.1920   -3.4290 O.2   362  TRP362     -0.2867
    152  CB        16.0540   -3.1690   -4.0180 C.3   362  TRP362      0.0550
    153  CG        16.2610   -1.6960   -3.9110 C.ar  362  TRP362      0.0003
    154  CD1       17.3230   -1.0550   -3.3790 C.ar  362  TRP362      0.0946
    155  CD2       15.3480   -0.6650   -4.3330 C.ar  362  TRP362      0.0152
    156  NE1       17.1420    0.3020   -3.4440 N.ar  362  TRP362     -0.2442
    157  CE2       15.9360    0.5710   -4.0200 C.ar  362  TRP362      0.0810
    158  CE3       14.1030   -0.6700   -4.9670 C.ar  362  TRP362      0.0012
    159  CZ2       15.2920    1.7980   -4.2670 C.ar  362  TRP362      0.0191
    160  CZ3       13.4810    0.5440   -5.2300 C.ar  362  TRP362      0.0001
    161  CH2       14.0780    1.7550   -4.8940 C.ar  362  TRP362      0.0015
    162  N         11.0840   -1.6190    0.8010 N.3   456  GLU456     -0.1245
    163  CA        11.8210   -1.3240   -0.4180 C.3   456  GLU456      0.1567
    164  C         13.2460   -1.8780   -0.3650 C.2   456  GLU456      0.2260
    165  O         13.7280   -2.4960   -1.3220 O.2   456  GLU456     -0.2867
    166  CB        11.8650    0.1880   -0.6520 C.3   456  GLU456      0.0388
    167  CG        12.5000    0.5960   -1.9680 C.3   456  GLU456      0.1160
    168  CD        12.5610    2.0950   -2.0850 C.2   456  GLU456      0.3649
    169  OE1       13.3960    2.6990   -1.3760 O.co2 456  GLU456     -0.2457
    170  OE2       11.7610    2.6700   -2.8660 O.co2 456  GLU456     -0.2457
    171  N          6.2020   -2.4330    0.4640 N.3   471  LEU471     -0.1245
    172  CA         6.2050   -1.8750   -0.8850 C.3   471  LEU471      0.1561
    173  C          5.4870   -2.8090   -1.8370 C.2   471  LEU471      0.2260
    174  O          5.8210   -3.9800   -1.9420 O.2   471  LEU471     -0.2867
    175  CB         7.6380   -1.6760   -1.3530 C.3   471  LEU471      0.0270
    176  CG         7.7880   -0.8970   -2.6530 C.3   471  LEU471      0.0019
    177  CD1        7.7010    0.5780   -2.4360 C.3   471  LEU471      0.0001
    178  CD2        9.1210   -1.2380   -3.3400 C.3   471  LEU471      0.0001
    179  N          5.4840   -3.1420   -5.0370 N.3   473  TRP473     -0.1241
    180  CA         6.3470   -3.7030   -6.0440 C.3   473  TRP473      0.1605
    181  C          7.2220   -4.8070   -5.4370 C.2   473  TRP473      0.2264
    182  O          7.4670   -5.8040   -6.1070 O.2   473  TRP473     -0.2867
    183  CB         7.1800   -2.5760   -6.6440 C.3   473  TRP473      0.0550
    184  CG         7.9110   -2.8760   -7.8990 C.ar  473  TRP473      0.0003
    185  CD1        7.9860   -4.0670   -8.5730 C.ar  473  TRP473      0.0946
    186  CD2        8.7400   -1.9560   -8.6280 C.ar  473  TRP473      0.0152
    187  NE1        8.7930   -3.9340   -9.6840 N.ar  473  TRP473     -0.2442
    188  CE2        9.2590   -2.6450   -9.7440 C.ar  473  TRP473      0.0810
    189  CE3        9.0840   -0.6020   -8.4580 C.ar  473  TRP473      0.0012
    190  CZ2       10.1240   -2.0500  -10.6500 C.ar  473  TRP473      0.0191
    191  CZ3        9.9400   -0.0060   -9.3720 C.ar  473  TRP473      0.0001
    192  CH2       10.4520   -0.7300  -10.4590 C.ar  473  TRP473      0.0015
@<TRIPOS>BOND
     1    74    75    1
     2    77    76    2
     3    76    75    1
     4    75    78    1
     5    80    82   ar
     6    80    79   ar
     7    78    79    1
     8    82    84   ar
     9    79    81   ar
    10    85    86    1
    11    84    83   ar
    12    89    86    1
    13    89    90    1
    14    92    90    1
    15    81    83   ar
    16    86    87    1
    17    91    90    1
    18    41    40    1
    19    73    72    2
    20    72    71    1
    21    33    32    1
    22    33    36    1
    23    33    34    1
    24    36    37    1
    25    37    38    1
    26    38    39    1
    27    35    34    2
    28    87    93   am
    29    87    88    2
    30   118   119    2
    31   118   117    1
    32    93    94    1
    33    71    70    1
    34    34    43   am
    35    40    39    2
    36    40    42    1
    37   116   117    1
    38   116   109   am
    39    59    58    2
    40   107   108    1
    41   107    95   am
    42   101    99   ar
    43   101   102   ar
    44    99    98   ar
    45   108   109    1
    46   108   111    1
    47   117   120    1
    48   109   110    2
    49    70    58   am
    50   102   104   ar
    51   102   100   ar
    52    43    44    1
    53    98    97    1
    54    98   100   ar
    55    94    95    1
    56    94    97    1
    57    58    57    1
    58   190   192   ar
    59   190   188   ar
    60   104   106   ar
    61    20    21    2
    62    20    19    1
    63   192   191   ar
    64    95    96    2
    65   128   127    2
    66   120   121    1
    67   100   103   ar
    68   111   112    1
    69   112   113    1
    70   106   105   ar
    71    45    44    1
    72    45    46    2
    73    62    64   ar
    74    62    61   ar
    75   188   187   ar
    76   188   186   ar
    77   103   105   ar
    78   115   113   ar
    79   187   185   ar
    80    44    47    1
    81    19    22    1
    82    19    18    1
    83    60    57    1
    84    60    61    1
    85   191   189   ar
    86    57    56    1
    87   127   126    1
    88    56    53   am
    89   113   114   ar
    90    22    23    1
    91    64    65   ar
    92   123   122   ar
    93   121   122    1
    94    61    63   ar
    95    24    23   ar
    96    24    26   ar
    97    50    48   ar
    98   186   189   ar
    99   186   184   ar
   100   185   184   ar
   101    23    25   ar
   102   122   124   ar
   103    47    48    1
   104   126   129    1
   105   126   125    1
   106   129   130    1
   107    53    52    1
   108    53    54    2
   109    48    49   ar
   110    26    27   ar
   111    52    55    1
   112    52    51    1
   113   184   183    1
   114    65    63   ar
   115    65    67   ar
   116    63    66   ar
   117   130   131    1
   118   131   132    1
   119    25    27   ar
   120    25    28   ar
   121   134   133    1
   122    27    29   ar
   123   183   180    1
   124   132   133    2
   125    67    69   ar
   126   133   135    1
   127    66    68   ar
   128   182   181    2
   129   180   181    1
   130   180   179    1
   131    28    30   ar
   132    29    31   ar
   133    69    68   ar
   134   160   158   ar
   135   160   161   ar
   136   158   155   ar
   137   161   159   ar
   138    30    31   ar
   139   155   157   ar
   140   155   153   ar
   141   159   157   ar
   142     5     2    1
   143   157   156   ar
   144   152   153    1
   145   152   149    1
   146   153   154   ar
   147     2     1    1
   148     2     3    1
   149   156   154   ar
   150   151   150    2
   151   178   176    1
   152   140   141    1
   153   140   137    1
   154   143   141   ar
   155   143   145   ar
   156   170   168   ar
   157   136   137    1
   158   149   150    1
   159   149   148    1
   160   141   142   ar
   161   176   177    1
   162   176   175    1
   163   145   146   ar
   164    17    16    1
   165     3     4    2
   166    15    16   ar
   167    15    13   ar
   168   137   138    1
   169   168   167    1
   170   168   169   ar
   171   167   166    1
   172   174   173    2
   173    16    14   ar
   174   142   144   ar
   175   173   172    1
   176   146   144   ar
   177   146   147    1
   178    13    11   ar
   179     9     8    2
   180   139   138    2
   181   175   172    1
   182   165   164    2
   183    14    12   ar
   184    11    12   ar
   185    11    10    1
   186   172   171    1
   187   166   163    1
   188     8     7    1
   189    10     7    1
   190   163   164    1
   191   163   162    1
   192     7     6    1
