@<TRIPOS>MOLECULE
tmp/2f6dA01.pdb
 101 100 0 0 0
SMALL
GASTEIGER

@<TRIPOS>ATOM
      1  N         13.3700  -19.2400    9.2060 N.3    15  ARG15      -0.1245
      2  CA        14.4000  -18.8530    8.2380 C.3    15  ARG15       0.1563
      3  C         15.3150  -20.0040    7.8120 C.2    15  ARG15       0.2260
      4  O         16.1980  -19.8160    6.9660 O.2    15  ARG15      -0.2867
      5  CB        15.1750  -17.6420    8.7650 C.3    15  ARG15       0.0307
      6  CG        14.2420  -16.4500    8.9980 C.3    15  ARG15       0.0489
      7  CD        14.7810  -15.3300    9.8010 C.3    15  ARG15       0.2205
      8  NE        13.6810  -14.4620   10.2380 N.pl3  15  ARG15      -0.0865
      9  CZ        13.2090  -13.4320    9.5350 C.cat  15  ARG15       0.5346
     10  NH1       13.7380  -13.1140    8.3590 N.pl3  15  ARG15       0.1354
     11  NH2       12.2130  -12.7080   10.0230 N.pl3  15  ARG15       0.1354
     12  N         26.5570   -7.3530    4.1040 N.3   333  VAL333     -0.1245
     13  CA        25.5220   -8.3340    4.3990 C.3   333  VAL333      0.1561
     14  C         25.6660   -9.5930    3.5040 C.2   333  VAL333      0.2260
     15  O         25.2110  -10.6710    3.8670 O.2   333  VAL333     -0.2867
     16  CB        24.0930   -7.7030    4.2610 C.3   333  VAL333      0.0252
     17  CG1       23.7700   -7.4290    2.7820 C.3   333  VAL333      0.0019
     18  CG2       23.0560   -8.6020    4.8730 C.3   333  VAL333      0.0019
     19  N         16.1610  -14.7440    4.7440 N.3   446  ASP446     -0.1225
     20  CA        17.0860  -14.3270    5.8030 C.3   446  ASP446      0.1805
     21  C         16.7490  -12.9610    6.3930 C.2   446  ASP446      0.2598
     22  O         17.0650  -12.6990    7.5420 O.2   446  ASP446     -0.2718
     23  CB        18.5280  -14.2480    5.2790 C.3   446  ASP446      0.1424
     24  CG        19.1380  -15.5880    5.0050 C.2   446  ASP446      0.3668
     25  OD1       20.2090  -15.6350    4.3300 O.co2 446  ASP446     -0.2456
     26  OD2       18.6530  -16.6560    5.4190 O.co2 446  ASP446     -0.2456
     27  N         16.1290  -12.0850    5.5990 N.am  447  HIS447     -0.1961
     28  CA        15.9910  -10.6860    5.9550 C.3   447  HIS447      0.1787
     29  C         14.5810  -10.1150    5.9460 C.2   447  HIS447      0.2620
     30  O         14.3850   -8.9710    6.3290 O.2   447  HIS447     -0.2715
     31  CB        16.9050   -9.8460    5.0550 C.3   447  HIS447      0.0785
     32  CG        18.3300  -10.3060    5.0850 C.ar  447  HIS447      0.0821
     33  ND1       19.1210  -10.2040    6.2080 N.ar  447  HIS447     -0.2267
     34  CD2       19.0790  -10.9370    4.1530 C.ar  447  HIS447      0.1154
     35  CE1       20.3120  -10.7160    5.9450 C.ar  447  HIS447      0.1986
     36  NE2       20.3060  -11.1830    4.7140 N.ar  447  HIS447     -0.2212
     37  N         13.5850  -10.9100    5.5740 N.am  448  ILE448     -0.1963
     38  CA        12.2090  -10.4100    5.5550 C.3   448  ILE448      0.1727
     39  C         11.7400  -10.0970    6.9790 C.2   448  ILE448      0.2616
     40  O         12.1740  -10.7630    7.9280 O.2   448  ILE448     -0.2715
     41  CB        11.2740  -11.4390    4.8980 C.3   448  ILE448      0.0290
     42  CG1        9.8880  -10.8300    4.6080 C.3   448  ILE448      0.0022
     43  CG2       11.1760  -12.7220    5.7510 C.3   448  ILE448      0.0023
     44  CD1        9.0690  -11.6930    3.6400 C.3   448  ILE448      0.0001
     45  N         10.8520   -9.1150    7.1280 N.am  449  ASN449     -0.1958
     46  CA        10.2640   -8.8310    8.4390 C.3   449  ASN449      0.1819
     47  C          9.5020  -10.0540    8.9550 C.2   449  ASN449      0.2621
     48  O          8.9630  -10.8510    8.1860 O.2   449  ASN449     -0.2715
     49  CB         9.3050   -7.6590    8.3730 C.3   449  ASN449      0.1195
     50  CG         9.9720   -6.3870    7.9780 C.2   449  ASN449      0.2630
     51  OD1        9.4060   -5.5940    7.2450 O.2   449  ASN449     -0.2716
     52  ND2       11.1650   -6.1810    8.4420 N.am  449  ASN449     -0.0877
     53  N          9.4250  -10.1590   10.2780 N.am  450  ASP450     -0.1971
     54  CA         8.6880  -11.2490   10.9080 C.3   450  ASP450      0.1709
     55  C          7.2350  -11.3350   10.4570 C.2   450  ASP450      0.2293
     56  O          6.6540  -12.4190   10.4610 O.2   450  ASP450     -0.2864
     57  CB         8.7270  -11.0920   12.4330 C.3   450  ASP450      0.1436
     58  CG        10.0720  -11.4630   13.0180 C.2   450  ASP450      0.3671
     59  OD1       10.3090  -11.1220   14.1800 O.co2 450  ASP450     -0.2456
     60  OD2       10.9200  -12.1360   12.4090 O.co2 450  ASP450     -0.2456
     61  N         24.7410   -3.3430    5.3820 N.3   461  TYR461     -0.1227
     62  CA        25.5770   -3.9070    6.4450 C.3   461  TYR461      0.1736
     63  C         24.8840   -5.0170    7.2280 C.2   461  TYR461      0.2596
     64  O         25.4480   -6.0920    7.4270 O.2   461  TYR461     -0.2718
     65  CB        26.0830   -2.8000    7.4020 C.3   461  TYR461      0.0548
     66  CG        26.8790   -1.7370    6.6750 C.ar  461  TYR461     -0.0200
     67  CD1       26.2640   -0.5780    6.2080 C.ar  461  TYR461     -0.0009
     68  CD2       28.2420   -1.9100    6.4170 C.ar  461  TYR461     -0.0009
     69  CE1       26.9700    0.3670    5.5100 C.ar  461  TYR461      0.0417
     70  CE2       28.9580   -0.9610    5.7220 C.ar  461  TYR461      0.0417
     71  CZ        28.3230    0.1820    5.2830 C.ar  461  TYR461      0.1957
     72  OH        29.0290    1.1350    4.5820 O.3   461  TYR461     -0.2866
     73  N         23.6750   -4.7540    7.7000 N.am  462  THR462     -0.1939
     74  CA        22.9900   -5.6680    8.6210 C.3   462  THR462      0.2028
     75  C         21.9430   -6.5510    7.9830 C.2   462  THR462      0.2643
     76  O         21.5480   -7.5550    8.5720 O.2   462  THR462     -0.2714
     77  CB        22.2620   -4.8800    9.6950 C.3   462  THR462      0.1808
     78  OG1       21.3150   -4.0100    9.0810 O.3   462  THR462     -0.2208
     79  CG2       23.2000   -3.9650   10.4620 C.3   462  THR462      0.0379
     80  N         21.4340   -6.1460    6.8310 N.am  463  GLY463     -0.1939
     81  CA        20.2830   -6.8310    6.2520 C.3   463  GLY463      0.2014
     82  C         18.9260   -6.4830    6.8620 C.2   463  GLY463      0.2639
     83  O         17.9150   -7.0270    6.4110 O.2   463  GLY463     -0.2714
     84  N         18.8640   -5.5730    7.8470 N.am  464  TYR464     -0.1959
     85  CA        17.5750   -5.2060    8.4110 C.3   464  TYR464      0.1771
     86  C         16.8120   -4.3910    7.3760 C.2   464  TYR464      0.2620
     87  O         17.3780   -3.5410    6.6810 O.2   464  TYR464     -0.2715
     88  CB        17.7300   -4.3950    9.7130 C.3   464  TYR464      0.0574
     89  CG        18.1560   -5.2180   10.9050 C.ar  464  TYR464     -0.0198
     90  CD1       19.2250   -4.8250   11.7060 C.ar  464  TYR464     -0.0009
     91  CD2       17.4770   -6.3650   11.2450 C.ar  464  TYR464     -0.0009
     92  CE1       19.6140   -5.5930   12.8180 C.ar  464  TYR464      0.0417
     93  CE2       17.8630   -7.1400   12.3340 C.ar  464  TYR464      0.0417
     94  CZ        18.9210   -6.7360   13.1120 C.ar  464  TYR464      0.1957
     95  OH        19.2890   -7.5180   14.1890 O.3   464  TYR464     -0.2866
     96  N         15.5170   -4.6510    7.2770 N.am  465  SER465     -0.1950
     97  CA        14.6870   -3.9110    6.3300 C.3   465  SER465      0.1924
     98  C         14.7050   -2.4140    6.5950 C.2   465  SER465      0.2314
     99  O         14.8140   -1.9540    7.7400 O.2   465  SER465     -0.2863
    100  CB        13.2560   -4.4550    6.3730 C.3   465  SER465      0.2116
    101  OG        12.6750   -4.2050    7.6280 O.3   465  SER465     -0.2180
@<TRIPOS>BOND
     1    17    16    1
     2    14    15    2
     3    14    13    1
     4    44    42    1
     5    12    13    1
     6    34    36   ar
     7    34    32   ar
     8    16    13    1
     9    16    18    1
    10    25    24   ar
    11    72    71    1
    12    42    41    1
    13    36    35   ar
    14    19    20    1
    15    41    38    1
    16    41    43    1
    17    24    23    1
    18    24    26   ar
    19    31    32    1
    20    31    28    1
    21    32    33   ar
    22    23    20    1
    23    71    69   ar
    24    71    70   ar
    25    61    62    1
    26    69    67   ar
    27    38    37    1
    28    38    39    1
    29    37    29   am
    30    27    28    1
    31    27    21   am
    32    70    68   ar
    33    20    21    1
    34    35    33   ar
    35    29    28    1
    36    29    30    2
    37    67    66   ar
    38    81    80    1
    39    81    82    1
    40    97   100    1
    41    97    98    1
    42    97    96    1
    43   100   101    1
    44    21    22    2
    45    83    82    2
    46    68    66   ar
    47    62    63    1
    48    62    65    1
    49    98    99    2
    50    66    65    1
    51    87    86    2
    52    80    75   am
    53    82    84   am
    54     4     3    2
    55    39    45   am
    56    39    40    2
    57    45    46    1
    58    63    64    2
    59    63    73   am
    60    51    50    2
    61    96    86   am
    62    86    85    1
    63    73    74    1
    64     3     2    1
    65    84    85    1
    66    50    49    1
    67    50    52   am
    68    75    76    2
    69    75    74    1
    70    48    47    2
    71     2     5    1
    72     2     1    1
    73    10     9    1
    74    49    46    1
    75    85    88    1
    76    46    47    1
    77    74    77    1
    78     5     6    1
    79    47    53   am
    80     6     7    1
    81    78    77    1
    82     9    11    1
    83     9     8    2
    84    77    79    1
    85    88    89    1
    86     7     8    1
    87    53    54    1
    88    55    56    2
    89    55    54    1
    90    89    91   ar
    91    89    90   ar
    92    54    57    1
    93    91    93   ar
    94    90    92   ar
    95    93    94   ar
    96    60    58   ar
    97    57    58    1
    98    92    94   ar
    99    58    59   ar
   100    94    95    1
