@<TRIPOS>MOLECULE
tmp/2f6tA00.pdb
 136 128 0 0 0
SMALL
GASTEIGER

@<TRIPOS>ATOM
      1  N        -23.9610   53.7160   45.1690 N.3    23  ARG23      -0.1245
      2  CA       -24.0350   52.4820   45.9570 C.3    23  ARG23       0.1563
      3  C        -25.4640   51.9530   46.0900 C.2    23  ARG23       0.2260
      4  O        -25.7120   50.7540   45.9340 O.2    23  ARG23      -0.2867
      5  CB       -23.4450   52.7070   47.3470 C.3    23  ARG23       0.0307
      6  CG       -21.9610   53.0820   47.3380 C.3    23  ARG23       0.0489
      7  CD       -21.3460   52.9580   48.7350 C.3    23  ARG23       0.2205
      8  NE       -21.4240   51.5820   49.2170 N.pl3  23  ARG23      -0.0865
      9  CZ       -22.1040   51.1910   50.2940 C.cat  23  ARG23       0.5346
     10  NH1      -22.7850   52.0630   51.0330 N.pl3  23  ARG23       0.1354
     11  NH2      -22.1020   49.9090   50.6370 N.pl3  23  ARG23       0.1354
     12  N        -11.4850   37.9500   50.6600 N.3    45  TYR45      -0.1241
     13  CA       -12.3870   38.6570   51.5800 C.3    45  TYR45       0.1605
     14  C        -13.7790   38.0370   51.5920 C.2    45  TYR45       0.2264
     15  O        -14.3320   37.7530   50.5330 O.2    45  TYR45      -0.2867
     16  CB       -12.5160   40.1240   51.1510 C.3    45  TYR45       0.0534
     17  CG       -11.1910   40.8600   51.1760 C.ar   45  TYR45      -0.0201
     18  CD1      -10.5830   41.1770   52.3830 C.ar   45  TYR45      -0.0009
     19  CD2      -10.5460   41.2450   49.9920 C.ar   45  TYR45      -0.0009
     20  CE1       -9.3660   41.8560   52.4230 C.ar   45  TYR45       0.0417
     21  CE2       -9.3190   41.9240   50.0280 C.ar   45  TYR45       0.0417
     22  CZ        -8.7370   42.2230   51.2470 C.ar   45  TYR45       0.1957
     23  OH        -7.5430   42.8990   51.3500 O.3    45  TYR45      -0.2866
     24  N        -16.6240   39.2250   52.0440 N.3    47  ASP47      -0.1225
     25  CA       -17.7260   39.9800   51.4630 C.3    47  ASP47       0.1805
     26  C        -17.4930   40.4900   50.0520 C.2    47  ASP47       0.2597
     27  O        -18.3460   41.2270   49.5510 O.2    47  ASP47      -0.2718
     28  CB       -18.1350   41.1250   52.3890 C.3    47  ASP47       0.1424
     29  CG       -18.6220   40.6080   53.7390 C.2    47  ASP47       0.3668
     30  OD1      -19.1370   39.4730   53.7750 O.co2  47  ASP47      -0.2456
     31  OD2      -18.4670   41.3310   54.7400 O.co2  47  ASP47      -0.2456
     32  N        -16.3800   40.1010   49.4320 N.am   48  VAL48      -0.1980
     33  CA       -16.0780   40.5450   48.0640 C.3    48  VAL48       0.1595
     34  C        -16.0430   39.3030   47.1810 C.2    48  VAL48       0.2287
     35  O        -15.1290   38.4740   47.2720 O.2    48  VAL48      -0.2864
     36  CB       -14.7350   41.3060   47.9530 C.3    48  VAL48       0.0276
     37  CG1      -14.5080   41.7640   46.4940 C.3    48  VAL48       0.0022
     38  CG2      -14.7410   42.5270   48.8820 C.3    48  VAL48       0.0022
     39  N         -1.5300   41.6320   51.4060 N.3   119  LYS119     -0.1245
     40  CA        -2.7560   41.9300   50.6660 C.3   119  LYS119      0.1561
     41  C         -2.7660   41.3090   49.2700 C.2   119  LYS119      0.2260
     42  O         -3.7500   41.4460   48.5280 O.2   119  LYS119     -0.2867
     43  CB        -2.9160   43.4440   50.5710 C.3   119  LYS119      0.0271
     44  CG        -3.1300   44.1280   51.9230 C.3   119  LYS119      0.0035
     45  CD        -4.6120   44.3440   52.2230 C.3   119  LYS119      0.0206
     46  CE        -5.2070   45.4760   51.3780 C.3   119  LYS119      0.1093
     47  NZ        -4.7920   46.8200   51.7950 N.3   119  LYS119     -0.1314
     48  N         -4.2720   52.0170   49.6510 N.3   180  ASP180     -0.1225
     49  CA        -5.5820   51.3810   49.7330 C.3   180  ASP180      0.1805
     50  C         -6.6150   52.3840   50.2570 C.2   180  ASP180      0.2597
     51  O         -6.3160   53.1650   51.1830 O.2   180  ASP180     -0.2718
     52  CB        -5.5240   50.1400   50.6270 C.3   180  ASP180      0.1424
     53  CG        -6.7300   49.2340   50.4200 C.2   180  ASP180      0.3668
     54  OD1       -7.4870   49.4720   49.4640 O.co2 180  ASP180     -0.2456
     55  OD2       -6.9130   48.2840   51.2130 O.co2 180  ASP180     -0.2456
     56  N         -7.8080   52.3580   49.6650 N.am  181  PHE181     -0.1976
     57  CA        -8.8780   53.3270   49.9250 C.3   181  PHE181      0.1639
     58  C         -8.4670   54.7880   49.7230 C.2   181  PHE181      0.2290
     59  O         -9.0660   55.7270   50.2640 O.2   181  PHE181     -0.2864
     60  CB        -9.5060   53.1170   51.3150 C.3   181  PHE181      0.0560
     61  CG       -10.1300   51.7660   51.4600 C.ar  181  PHE181     -0.0200
     62  CD1       -9.4530   50.7490   52.1060 C.ar  181  PHE181     -0.0042
     63  CD2      -11.3930   51.5160   50.9390 C.ar  181  PHE181     -0.0042
     64  CE1      -10.0150   49.5000   52.2350 C.ar  181  PHE181     -0.0003
     65  CE2      -11.9600   50.2640   51.0690 C.ar  181  PHE181     -0.0003
     66  CZ       -11.2670   49.2620   51.7100 C.ar  181  PHE181     -0.0000
     67  N         -6.1470   44.8250   42.3920 N.3   214  CYS214     -0.1221
     68  CA        -5.5980   45.5010   43.5610 C.3   214  CYS214      0.1808
     69  C         -5.6440   44.4490   44.6680 C.2   214  CYS214      0.2602
     70  O         -5.2140   43.3150   44.4320 O.2   214  CYS214     -0.2717
     71  CB        -6.3440   46.8130   43.8050 C.3   214  CYS214      0.0970
     72  SG        -8.1750   46.7080   43.6800 S.3   214  CYS214     -0.0800
     73  N         -6.1320   44.7590   45.8680 N.am  215  SER215     -0.1938
     74  CA        -6.2360   43.6760   46.8380 C.3   215  SER215      0.2055
     75  C         -7.6080   43.0090   46.7230 C.2   215  SER215      0.2642
     76  O         -7.6490   41.7870   46.5210 O.2   215  SER215     -0.2714
     77  CB        -5.9240   44.1460   48.2580 C.3   215  SER215      0.2130
     78  OG        -5.9950   43.0500   49.1420 O.3   215  SER215     -0.2179
     79  N         -8.6860   43.7840   46.8330 N.am  216  ALA216     -0.1977
     80  CA       -10.0230   43.2030   46.6310 C.3   216  ALA216      0.1597
     81  C        -10.4330   43.1320   45.1670 C.2   216  ALA216      0.2287
     82  O        -11.3690   42.3990   44.8210 O.2   216  ALA216     -0.2864
     83  CB       -11.0850   44.0000   47.4150 C.3   216  ALA216      0.0319
     84  N        -11.6130   45.7840   43.4730 N.3   218  ILE218     -0.1231
     85  CA       -12.7940   46.6380   43.3250 C.3   218  ILE218      0.1692
     86  C        -12.5530   48.1430   43.4780 C.2   218  ILE218      0.2593
     87  O        -13.0920   48.9240   42.6890 O.2   218  ILE218     -0.2718
     88  CB       -14.0000   46.1550   44.1930 C.3   218  ILE218      0.0266
     89  CG1      -13.6760   46.3230   45.6840 C.3   218  ILE218      0.0019
     90  CG2      -14.3910   44.6920   43.8870 C.3   218  ILE218      0.0020
     91  CD1      -14.8540   45.9120   46.5940 C.3   218  ILE218      0.0001
     92  N        -11.7700   48.5770   44.4670 N.am  219  GLY219     -0.1942
     93  CA       -11.6700   50.0200   44.7300 C.3   219  GLY219      0.2014
     94  C        -10.7430   50.7220   43.7440 C.2   219  GLY219      0.2638
     95  O        -11.1600   51.5390   42.9190 O.2   219  GLY219     -0.2714
     96  N         -9.4600   50.3950   43.8420 N.am  220  ARG220     -0.1977
     97  CA        -8.4370   50.9490   42.9400 C.3   220  ARG220      0.1597
     98  C         -8.6520   50.4100   41.5210 C.2   220  ARG220      0.2287
     99  O         -8.5850   51.1960   40.5600 O.2   220  ARG220     -0.2864
    100  CB        -7.0430   50.6220   43.4790 C.3   220  ARG220      0.0334
    101  CG        -6.7900   51.3950   44.7790 C.3   220  ARG220      0.0492
    102  CD        -5.5260   50.9610   45.5090 C.3   220  ARG220      0.2205
    103  NE        -5.7670   49.7110   46.2420 N.pl3 220  ARG220     -0.0865
    104  CZ        -4.8680   49.0960   47.0140 C.cat 220  ARG220      0.5346
    105  NH1       -3.6530   49.6090   47.1520 N.pl3 220  ARG220      0.1354
    106  NH2       -5.1950   47.9580   47.6340 N.pl3 220  ARG220      0.1354
    107  N        -19.2180   43.7700   41.9400 N.3   257  MET257     -0.1230
    108  CA       -19.6990   44.6180   43.0260 C.3   257  MET257      0.1702
    109  C        -18.6230   45.5970   43.4870 C.2   257  MET257      0.2592
    110  O        -17.4130   45.3410   43.3730 O.2   257  MET257     -0.2718
    111  CB       -20.0640   43.7690   44.2470 C.3   257  MET257      0.0401
    112  CG       -18.9350   42.8960   44.7850 C.3   257  MET257      0.0596
    113  SD       -19.3220   42.0220   46.3180 S.3   257  MET257     -0.1393
    114  CE       -20.6720   40.9680   45.7950 C.3   257  MET257      0.0692
    115  N        -19.0900   46.7210   44.0230 N.am  258  GLY258     -0.1957
    116  CA       -18.2230   47.6010   44.7990 C.3   258  GLY258      0.1869
    117  C        -17.2030   48.4460   44.0640 C.2   258  GLY258      0.2309
    118  O        -16.3380   49.0350   44.7030 O.2   258  GLY258     -0.2863
    119  N        -14.3740   52.5710   45.7230 N.3   261  GLN261     -0.1245
    120  CA       -14.6660   52.2940   47.1300 C.3   261  GLN261      0.1566
    121  C        -14.8450   53.4970   48.0340 C.2   261  GLN261      0.2260
    122  O        -15.2920   53.3510   49.1830 O.2   261  GLN261     -0.2867
    123  CB       -13.6060   51.3520   47.7180 C.3   261  GLN261      0.0367
    124  CG       -13.9230   49.8980   47.3640 C.3   261  GLN261      0.0905
    125  CD       -15.0780   49.3830   48.1950 C.2   261  GLN261      0.2608
    126  OE1      -14.9340   49.1850   49.4090 O.2   261  GLN261     -0.2717
    127  NE2      -16.2280   49.1760   47.5550 N.am  261  GLN261     -0.0878
    128  N        -12.3280   58.6200   45.6050 N.3   265  GLN265     -0.1245
    129  CA       -11.9490   57.9050   44.3640 C.3   265  GLN265      0.1566
    130  C        -12.8940   58.2410   43.2060 C.2   265  GLN265      0.2260
    131  O        -12.4550   58.3360   42.0460 O.2   265  GLN265     -0.2867
    132  CB       -11.9410   56.3880   44.6010 C.3   265  GLN265      0.0367
    133  CG       -10.7330   55.8880   45.3840 C.3   265  GLN265      0.0905
    134  CD       -10.8710   54.4440   45.8390 C.2   265  GLN265      0.2608
    135  OE1      -11.9150   53.8060   45.6580 O.2   265  GLN265     -0.2717
    136  NE2       -9.8040   53.9200   46.4110 N.am  265  GLN265     -0.0878
@<TRIPOS>BOND
     1    99    98    2
     2    98    97    1
     3   107   108    1
     4   131   130    2
     5    67    68    1
     6    87    86    2
     7    95    94    2
     8    97   100    1
     9    97    96    1
    10   108   109    1
    11   108   111    1
    12   130   129    1
    13    85    84    1
    14    85    86    1
    15    85    88    1
    16   110   109    2
    17    86    92   am
    18   100   101    1
    19   109   115   am
    20    68    71    1
    21    68    69    1
    22    72    71    1
    23    94    96   am
    24    94    93    1
    25    90    88    1
    26   115   116    1
    27   117   118    2
    28   117   116    1
    29    88    89    1
    30   111   112    1
    31   129   132    1
    32   129   128    1
    33    70    69    2
    34    92    93    1
    35   132   133    1
    36    69    73   am
    37   101   102    1
    38   112   113    1
    39    82    81    2
    40    81    80    1
    41     1     2    1
    42   133   134    1
    43   102   103    1
    44   135   134    2
    45    89    91    1
    46   119   120    1
    47   114   113    1
    48   134   136   am
    49    73    74    1
    50     4     3    2
    51     2     3    1
    52     2     5    1
    53   103   104    2
    54    37    36    1
    55    76    75    2
    56    80    79    1
    57    80    83    1
    58    75    79   am
    59    75    74    1
    60    74    77    1
    61   104   105    1
    62   104   106    1
    63   120   123    1
    64   120   121    1
    65    34    35    2
    66    34    33    1
    67     6     5    1
    68     6     7    1
    69   124   123    1
    70   124   125    1
    71   127   125   am
    72    36    33    1
    73    36    38    1
    74   121   122    2
    75    33    32    1
    76   125   126    2
    77    77    78    1
    78    42    41    2
    79     7     8    1
    80     8     9    2
    81    41    40    1
    82    32    26   am
    83    54    53   ar
    84    27    26    2
    85    48    49    1
    86    56    57    1
    87    56    50   am
    88    58    57    1
    89    58    59    2
    90    49    50    1
    91    49    52    1
    92    57    60    1
    93    19    21   ar
    94    19    17   ar
    95    21    22   ar
    96    26    25    1
    97    50    51    2
    98     9    11    1
    99     9    10    1
   100    53    52    1
   101    53    55   ar
   102    15    14    2
   103    43    40    1
   104    43    44    1
   105    12    13    1
   106    40    39    1
   107    63    65   ar
   108    63    61   ar
   109    65    66   ar
   110    16    17    1
   111    16    13    1
   112    17    18   ar
   113    22    23    1
   114    22    20   ar
   115    60    61    1
   116    46    47    1
   117    46    45    1
   118    61    62   ar
   119    25    24    1
   120    25    28    1
   121    13    14    1
   122    66    64   ar
   123    44    45    1
   124    62    64   ar
   125    18    20   ar
   126    28    29    1
   127    29    30   ar
   128    29    31   ar
