@<TRIPOS>MOLECULE
tmp/2f6vA00.pdb
 147 138 0 0 0
SMALL
GASTEIGER

@<TRIPOS>ATOM
      1  N        -24.1580   53.6860   45.2400 N.3    23  ARG23      -0.1245
      2  CA       -24.2070   52.4650   46.0330 C.3    23  ARG23       0.1563
      3  C        -25.6250   51.9110   46.1250 C.2    23  ARG23       0.2260
      4  O        -25.8120   50.6990   46.0170 O.2    23  ARG23      -0.2867
      5  CB       -23.6710   52.7340   47.4390 C.3    23  ARG23       0.0307
      6  CG       -22.1830   53.0770   47.4340 C.3    23  ARG23       0.0489
      7  CD       -21.5370   52.9680   48.8030 C.3    23  ARG23       0.2205
      8  NE       -21.5830   51.5920   49.2910 N.pl3  23  ARG23      -0.0865
      9  CZ       -22.3030   51.1780   50.3310 C.cat  23  ARG23       0.5346
     10  NH1      -23.0570   52.0320   51.0170 N.pl3  23  ARG23       0.1354
     11  NH2      -22.2670   49.9000   50.6850 N.pl3  23  ARG23       0.1354
     12  N        -11.5780   37.6610   50.7110 N.3    45  TYR45      -0.1241
     13  CA       -12.4550   38.4220   51.5940 C.3    45  TYR45       0.1605
     14  C        -13.8720   37.8470   51.6210 C.2    45  TYR45       0.2264
     15  O        -14.4500   37.5730   50.5730 O.2    45  TYR45      -0.2867
     16  CB       -12.5460   39.8850   51.1560 C.3    45  TYR45       0.0534
     17  CG       -11.2120   40.6000   51.2060 C.ar   45  TYR45      -0.0201
     18  CD1      -10.5390   40.7880   52.4110 C.ar   45  TYR45      -0.0009
     19  CD2      -10.6160   41.0640   50.0290 C.ar   45  TYR45      -0.0009
     20  CE1       -9.3000   41.4420   52.4520 C.ar   45  TYR45       0.0417
     21  CE2       -9.3880   41.7250   50.0590 C.ar   45  TYR45       0.0417
     22  CZ        -8.7440   41.9150   51.2700 C.ar   45  TYR45       0.1957
     23  OH        -7.5360   42.5680   51.3430 O.3    45  TYR45      -0.2866
     24  N        -16.7270   39.1550   52.0590 N.3    47  ASP47      -0.1225
     25  CA       -17.8180   39.9550   51.5150 C.3    47  ASP47       0.1805
     26  C        -17.5410   40.5030   50.1160 C.2    47  ASP47       0.2597
     27  O        -18.2930   41.3490   49.6250 O.2    47  ASP47      -0.2718
     28  CB       -18.1530   41.0610   52.5170 C.3    47  ASP47       0.1424
     29  CG       -18.6430   40.4960   53.8450 C.2    47  ASP47       0.3668
     30  OD1      -19.1790   39.3660   53.8370 O.co2  47  ASP47      -0.2456
     31  OD2      -18.4790   41.1740   54.8830 O.co2  47  ASP47      -0.2456
     32  N        -16.4850   40.0120   49.4700 N.am   48  VAL48      -0.1980
     33  CA       -16.1900   40.4390   48.0890 C.3    48  VAL48       0.1595
     34  C        -16.1710   39.1910   47.2170 C.2    48  VAL48       0.2287
     35  O        -15.2660   38.3560   47.3270 O.2    48  VAL48      -0.2864
     36  CB       -14.8270   41.1600   47.9450 C.3    48  VAL48       0.0276
     37  CG1      -14.6100   41.5720   46.4710 C.3    48  VAL48       0.0022
     38  CG2      -14.7740   42.3760   48.8750 C.3    48  VAL48       0.0022
     39  N         -1.6030   41.3990   51.3640 N.3   119  LYS119     -0.1245
     40  CA        -2.8340   41.6930   50.6360 C.3   119  LYS119      0.1561
     41  C         -2.8330   41.0600   49.2460 C.2   119  LYS119      0.2260
     42  O         -3.8200   41.1790   48.5220 O.2   119  LYS119     -0.2867
     43  CB        -2.9880   43.2080   50.5060 C.3   119  LYS119      0.0271
     44  CG        -3.2500   43.9300   51.8270 C.3   119  LYS119      0.0035
     45  CD        -4.7470   44.1120   52.0680 C.3   119  LYS119      0.0206
     46  CE        -5.3390   45.2850   51.2680 C.3   119  LYS119      0.1093
     47  NZ        -4.8940   46.5910   51.7510 N.3   119  LYS119     -0.1314
     48  N         -4.3400   51.8400   49.6190 N.3   180  ASP180     -0.1225
     49  CA        -5.6640   51.2120   49.7070 C.3   180  ASP180      0.1805
     50  C         -6.6890   52.2140   50.2650 C.2   180  ASP180      0.2597
     51  O         -6.3780   52.9790   51.1980 O.2   180  ASP180     -0.2718
     52  CB        -5.5880   49.9690   50.5960 C.3   180  ASP180      0.1424
     53  CG        -6.8100   49.0930   50.4380 C.2   180  ASP180      0.3668
     54  OD1       -7.5750   49.3350   49.4790 O.co2 180  ASP180     -0.2456
     55  OD2       -6.9640   48.1720   51.2700 O.co2 180  ASP180     -0.2456
     56  N         -7.8900   52.2170   49.6930 N.am  181  PHE181     -0.1976
     57  CA        -8.9580   53.1780   49.9940 C.3   181  PHE181      0.1639
     58  C         -8.5310   54.6370   49.7770 C.2   181  PHE181      0.2290
     59  O         -9.1120   55.5690   50.3490 O.2   181  PHE181     -0.2864
     60  CB        -9.5100   52.9440   51.4150 C.3   181  PHE181      0.0560
     61  CG       -10.1670   51.5960   51.5540 C.ar  181  PHE181     -0.0200
     62  CD1       -9.4870   50.5650   52.1690 C.ar  181  PHE181     -0.0042
     63  CD2      -11.4460   51.3810   51.0560 C.ar  181  PHE181     -0.0042
     64  CE1      -10.0680   49.3180   52.2930 C.ar  181  PHE181     -0.0003
     65  CE2      -12.0380   50.1190   51.1810 C.ar  181  PHE181     -0.0003
     66  CZ       -11.3300   49.1050   51.7920 C.ar  181  PHE181     -0.0000
     67  N         -6.2690   44.6930   42.3810 N.3   214  CYS214     -0.1221
     68  CA        -5.7190   45.3570   43.5520 C.3   214  CYS214      0.1808
     69  C         -5.7440   44.3010   44.6570 C.2   214  CYS214      0.2602
     70  O         -5.3330   43.1600   44.4140 O.2   214  CYS214     -0.2717
     71  CB        -6.4480   46.6740   43.7990 C.3   214  CYS214      0.0970
     72  SG        -8.2640   46.5670   43.6820 S.3   214  CYS214     -0.0800
     73  N         -6.2000   44.6260   45.8610 N.am  215  SER215     -0.1938
     74  CA        -6.3210   43.5450   46.8240 C.3   215  SER215      0.2055
     75  C         -7.6810   42.8670   46.7240 C.2   215  SER215      0.2642
     76  O         -7.7220   41.6490   46.5450 O.2   215  SER215     -0.2714
     77  CB        -6.0770   44.0330   48.2460 C.3   215  SER215      0.2130
     78  OG        -6.0350   42.8880   49.0600 O.3   215  SER215     -0.2179
     79  N         -8.7730   43.6250   46.8150 N.am  216  ALA216     -0.1977
     80  CA       -10.0950   43.0110   46.6430 C.3   216  ALA216      0.1597
     81  C        -10.5310   42.9770   45.1820 C.2   216  ALA216      0.2287
     82  O        -11.4710   42.2450   44.8440 O.2   216  ALA216     -0.2864
     83  CB       -11.1450   43.7850   47.4490 C.3   216  ALA216      0.0319
     84  N        -11.7350   45.6350   43.5710 N.3   218  ILE218     -0.1231
     85  CA       -12.9040   46.5000   43.4010 C.3   218  ILE218      0.1692
     86  C        -12.6540   48.0100   43.5250 C.2   218  ILE218      0.2593
     87  O        -13.2030   48.7820   42.7350 O.2   218  ILE218     -0.2718
     88  CB       -14.1000   46.0630   44.2880 C.3   218  ILE218      0.0266
     89  CG1      -13.7550   46.2230   45.7910 C.3   218  ILE218      0.0019
     90  CG2      -14.4570   44.6270   43.9430 C.3   218  ILE218      0.0020
     91  CD1      -14.8700   45.7660   46.7910 C.3   218  ILE218      0.0001
     92  N        -11.8700   48.4430   44.5140 N.am  219  GLY219     -0.1942
     93  CA       -11.7430   49.8950   44.7520 C.3   219  GLY219      0.2014
     94  C        -10.8190   50.5910   43.7670 C.2   219  GLY219      0.2638
     95  O        -11.2610   51.4130   42.9470 O.2   219  GLY219     -0.2714
     96  N         -9.5350   50.2490   43.8740 N.am  220  ARG220     -0.1977
     97  CA        -8.5050   50.7960   42.9740 C.3   220  ARG220      0.1597
     98  C         -8.7470   50.2660   41.5570 C.2   220  ARG220      0.2287
     99  O         -8.7110   51.0540   40.6090 O.2   220  ARG220     -0.2864
    100  CB        -7.1030   50.4590   43.4940 C.3   220  ARG220      0.0334
    101  CG        -6.8220   51.2590   44.7650 C.3   220  ARG220      0.0492
    102  CD        -5.6100   50.8190   45.5900 C.3   220  ARG220      0.2205
    103  NE        -5.8740   49.5530   46.2870 N.pl3 220  ARG220     -0.0865
    104  CZ        -4.9570   48.9370   47.0290 C.cat 220  ARG220      0.5346
    105  NH1       -3.7440   49.4610   47.1360 N.pl3 220  ARG220      0.1354
    106  NH2       -5.2590   47.7900   47.6270 N.pl3 220  ARG220      0.1354
    107  N        -20.7810   48.1640   37.3720 N.3   253  ARG253     -0.1245
    108  CA       -21.2470   47.4720   38.5760 C.3   253  ARG253      0.1563
    109  C        -22.2870   46.3790   38.3060 C.2   253  ARG253      0.2260
    110  O        -22.6340   45.6150   39.2140 O.2   253  ARG253     -0.2867
    111  CB       -21.7700   48.4550   39.6300 C.3   253  ARG253      0.0307
    112  CG       -20.6160   49.1180   40.3820 C.3   253  ARG253      0.0489
    113  CD       -21.1500   49.9300   41.5490 C.3   253  ARG253      0.2205
    114  NE       -20.1220   50.5000   42.4310 N.pl3 253  ARG253     -0.0865
    115  CZ       -20.2330   50.5860   43.7570 C.cat 253  ARG253      0.5346
    116  NH1      -19.2640   51.1350   44.4750 N.pl3 253  ARG253      0.1354
    117  NH2      -21.2990   50.1360   44.4200 N.pl3 253  ARG253      0.1354
    118  N        -19.3140   43.6480   41.9530 N.3   257  MET257     -0.1230
    119  CA       -19.7960   44.4920   43.0510 C.3   257  MET257      0.1702
    120  C        -18.7270   45.4780   43.5290 C.2   257  MET257      0.2592
    121  O        -17.5260   45.2080   43.4690 O.2   257  MET257     -0.2718
    122  CB       -20.1490   43.6260   44.2650 C.3   257  MET257      0.0401
    123  CG       -19.0270   42.7000   44.7540 C.3   257  MET257      0.0596
    124  SD       -19.4880   41.8700   46.2960 S.3   257  MET257     -0.1393
    125  CE       -20.7150   40.6930   45.6820 C.3   257  MET257      0.0692
    126  N        -19.1990   46.6140   44.0330 N.am  258  GLY258     -0.1957
    127  CA       -18.3560   47.5090   44.8140 C.3   258  GLY258      0.1869
    128  C        -17.2870   48.3000   44.0880 C.2   258  GLY258      0.2309
    129  O        -16.4080   48.8690   44.7290 O.2   258  GLY258     -0.2863
    130  N        -14.4990   52.4290   45.7940 N.3   261  GLN261     -0.1245
    131  CA       -14.7870   52.1180   47.2000 C.3   261  GLN261      0.1566
    132  C        -14.9920   53.3310   48.0990 C.2   261  GLN261      0.2260
    133  O        -15.4860   53.1960   49.2390 O.2   261  GLN261     -0.2867
    134  CB       -13.6820   51.2060   47.7580 C.3   261  GLN261      0.0367
    135  CG       -13.9300   49.7340   47.3970 C.3   261  GLN261      0.0905
    136  CD       -15.0250   49.1470   48.2550 C.2   261  GLN261      0.2608
    137  OE1      -14.8710   48.9910   49.4790 O.2   261  GLN261     -0.2717
    138  NE2      -16.1480   48.8340   47.6180 N.am  261  GLN261     -0.0878
    139  N        -12.4500   58.4500   45.7240 N.3   265  GLN265     -0.1245
    140  CA       -12.0670   57.7470   44.4820 C.3   265  GLN265      0.1566
    141  C        -12.9980   58.0940   43.3190 C.2   265  GLN265      0.2260
    142  O        -12.5490   58.2000   42.1670 O.2   265  GLN265     -0.2867
    143  CB       -12.0570   56.2340   44.6960 C.3   265  GLN265      0.0367
    144  CG       -10.8440   55.7680   45.4970 C.3   265  GLN265      0.0905
    145  CD       -10.9520   54.3090   45.9210 C.2   265  GLN265      0.2608
    146  OE1      -11.9940   53.6700   45.7550 O.2   265  GLN265     -0.2717
    147  NE2       -9.8650   53.7800   46.4530 N.am  265  GLN265     -0.0878
@<TRIPOS>BOND
     1   107   108    1
     2   109   108    1
     3   109   110    2
     4   108   111    1
     5   111   112    1
     6   112   113    1
     7    99    98    2
     8   113   114    1
     9    98    97    1
    10   118   119    1
    11   142   141    2
    12    67    68    1
    13   114   115    2
    14    87    86    2
    15    95    94    2
    16    97   100    1
    17    97    96    1
    18   119   120    1
    19   119   122    1
    20   141   140    1
    21    85    86    1
    22    85    84    1
    23    85    88    1
    24   121   120    2
    25   100   101    1
    26    86    92   am
    27   120   126   am
    28    68    71    1
    29    68    69    1
    30    72    71    1
    31   115   117    1
    32   115   116    1
    33    94    96   am
    34    94    93    1
    35    90    88    1
    36   126   127    1
    37   128   129    2
    38   128   127    1
    39   122   123    1
    40    88    89    1
    41    70    69    2
    42   140   143    1
    43   140   139    1
    44    92    93    1
    45    69    73   am
    46   143   144    1
    47   123   124    1
    48   101   102    1
    49    82    81    2
    50    81    80    1
    51     1     2    1
    52   144   145    1
    53   102   103    1
    54   125   124    1
    55   146   145    2
    56    89    91    1
    57   130   131    1
    58    73    74    1
    59   145   147   am
    60     4     3    2
    61     2     3    1
    62     2     5    1
    63   103   104    2
    64    37    36    1
    65    76    75    2
    66    80    79    1
    67    80    83    1
    68    75    79   am
    69    75    74    1
    70    74    77    1
    71   104   105    1
    72   104   106    1
    73   131   134    1
    74   131   132    1
    75    34    35    2
    76    34    33    1
    77   135   134    1
    78   135   136    1
    79     6     5    1
    80     6     7    1
    81   138   136   am
    82    36    33    1
    83    36    38    1
    84    33    32    1
    85   132   133    2
    86    77    78    1
    87   136   137    2
    88    42    41    2
    89     7     8    1
    90    41    40    1
    91     8     9    2
    92    32    26   am
    93    54    53   ar
    94    48    49    1
    95    27    26    2
    96    56    57    1
    97    56    50   am
    98    49    50    1
    99    49    52    1
   100    58    57    1
   101    58    59    2
   102    57    60    1
   103    19    21   ar
   104    19    17   ar
   105    21    22   ar
   106    26    25    1
   107    50    51    2
   108     9    11    1
   109     9    10    1
   110    53    52    1
   111    53    55   ar
   112    43    40    1
   113    43    44    1
   114    15    14    2
   115    40    39    1
   116    12    13    1
   117    63    65   ar
   118    63    61   ar
   119    16    17    1
   120    16    13    1
   121    65    66   ar
   122    17    18   ar
   123    46    47    1
   124    46    45    1
   125    22    23    1
   126    22    20   ar
   127    60    61    1
   128    25    24    1
   129    25    28    1
   130    61    62   ar
   131    13    14    1
   132    66    64   ar
   133    44    45    1
   134    62    64   ar
   135    18    20   ar
   136    28    29    1
   137    30    29   ar
   138    29    31   ar
