@<TRIPOS>MOLECULE
tmp/2f6wA00.pdb
 122 115 0 0 0
SMALL
GASTEIGER

@<TRIPOS>ATOM
      1  N         49.6550    8.8930   15.8700 N.3    45  TYR45      -0.1241
      2  CA        48.5120    8.4590   16.6510 C.3    45  TYR45       0.1605
      3  C         48.4030    6.9300   16.6080 C.2    45  TYR45       0.2264
      4  O         48.3030    6.3470   15.5310 O.2    45  TYR45      -0.2867
      5  CB        47.2010    9.0680   16.1070 C.3    45  TYR45       0.0534
      6  CG        47.2650   10.5970   16.2310 C.ar   45  TYR45      -0.0201
      7  CD1       47.3120   11.2290   17.4800 C.ar   45  TYR45      -0.0009
      8  CD2       47.3050   11.4120   15.0950 C.ar   45  TYR45      -0.0009
      9  CE1       47.3890   12.6310   17.6020 C.ar   45  TYR45       0.0417
     10  CE2       47.3700   12.8160   15.1990 C.ar   45  TYR45       0.0417
     11  CZ        47.4280   13.4110   16.4430 C.ar   45  TYR45       0.1957
     12  OH        47.4950   14.7830   16.4660 O.3    45  TYR45      -0.2866
     13  N         45.8860    5.0830   17.1990 N.3    47  ASP47      -0.1225
     14  CA        44.6510    4.6180   16.6400 C.3    47  ASP47       0.1805
     15  C         44.4130    5.2200   15.2500 C.2    47  ASP47       0.2597
     16  O         43.3240    5.1090   14.7690 O.2    47  ASP47      -0.2718
     17  CB        43.5250    4.9730   17.6180 C.3    47  ASP47       0.1424
     18  CG        43.6840    4.2800   18.9840 C.2    47  ASP47       0.3668
     19  OD1       44.4580    3.3140   19.1140 O.co2  47  ASP47      -0.2456
     20  OD2       43.0330    4.6960   19.9750 O.co2  47  ASP47      -0.2456
     21  N         45.3580    5.8570   14.5660 N.am   48  VAL48      -0.1980
     22  CA        45.0690    6.2990   13.2040 C.3    48  VAL48       0.1595
     23  C         46.1280    5.6710   12.3070 C.2    48  VAL48       0.2287
     24  O         47.3180    6.0210   12.3550 O.2    48  VAL48      -0.2864
     25  CB        45.0140    7.8560   13.0540 C.3    48  VAL48       0.0276
     26  CG1       44.6160    8.3340   11.6500 C.3    48  VAL48       0.0022
     27  CG2       44.1500    8.5060   14.1470 C.3    48  VAL48       0.0022
     28  N         46.5210   24.1120   20.0770 N.3   115  LYS115     -0.1197
     29  CA        46.1990   23.8190   21.4680 C.3   115  LYS115      0.1778
     30  C         47.4760   23.5530   22.2820 C.2   115  LYS115      0.2305
     31  O         47.5300   22.6910   23.1540 O.2   115  LYS115     -0.2863
     32  CB        45.1570   22.6920   21.5870 C.2   115  LYS115     -0.0042
     33  CG        43.8660   22.8070   20.6770 C.2   115  LYS115     -0.0273
     34  CD        42.8860   21.5980   20.7500 C.3   115  LYS115      0.0462
     35  CE        42.7350   20.6670   19.5210 C.3   115  LYS115      0.1140
     36  NZ        42.6660   19.1250   19.5050 N.3   115  LYS115     -0.1310
     37  N         51.7570   19.4130   16.4560 N.3   119  LYS119     -0.1245
     38  CA        50.8200   18.5130   15.7980 C.3   119  LYS119      0.1561
     39  C         51.3150   18.1310   14.4070 C.2   119  LYS119      0.2260
     40  O         50.6890   17.3120   13.7310 O.2   119  LYS119     -0.2867
     41  CB        49.4000   19.0990   15.7730 C.3   119  LYS119      0.0271
     42  CG        48.7260   19.3400   17.1270 C.3   119  LYS119      0.0035
     43  CD        47.7200   18.2790   17.5750 C.3   119  LYS119      0.0206
     44  CE        46.5880   18.0930   16.5610 C.3   119  LYS119      0.1093
     45  NZ        45.4210   19.0030   16.6010 N.3   119  LYS119     -0.1314
     46  N         41.1350   22.2810   14.8450 N.3   180  ASP180     -0.1225
     47  CA        41.0640   20.8440   14.9750 C.3   180  ASP180      0.1805
     48  C         39.6770   20.4620   15.5490 C.2   180  ASP180      0.2597
     49  O         39.2080   21.1530   16.4460 O.2   180  ASP180     -0.2718
     50  CB        42.2120   20.4520   15.8850 C.3   180  ASP180      0.1424
     51  CG        42.4510   18.9400   15.9060 C.2   180  ASP180      0.3668
     52  OD1       41.8850   18.2940   14.9920 O.co2 180  ASP180     -0.2456
     53  OD2       43.1920   18.4520   16.8060 O.co2 180  ASP180     -0.2456
     54  N         39.0390   19.3950   15.0540 N.am  181  PHE181     -0.1976
     55  CA        37.6980   18.9640   15.4110 C.3   181  PHE181      0.1639
     56  C         36.7020   20.1000   15.1800 C.2   181  PHE181      0.2290
     57  O         35.6230   20.1220   15.7460 O.2   181  PHE181     -0.2864
     58  CB        37.7030   18.4040   16.8420 C.3   181  PHE181      0.0560
     59  CG        38.5370   17.1370   16.9320 C.ar  181  PHE181     -0.0200
     60  CD1       39.8020   17.1580   17.5020 C.ar  181  PHE181     -0.0042
     61  CD2       38.0620   15.9260   16.4150 C.ar  181  PHE181     -0.0042
     62  CE1       40.5580   15.9920   17.5560 C.ar  181  PHE181     -0.0003
     63  CE2       38.8240   14.7570   16.4540 C.ar  181  PHE181     -0.0003
     64  CZ        40.0640   14.7930   17.0320 C.ar  181  PHE181     -0.0000
     65  N         46.1940   16.9840    7.6070 N.3   214  CYS214     -0.1221
     66  CA        45.9680   17.8880    8.7230 C.3   214  CYS214      0.1808
     67  C         46.9280   17.3180    9.7740 C.2   214  CYS214      0.2602
     68  O         48.1010   17.0850    9.4730 O.2   214  CYS214     -0.2717
     69  CB        44.4980   17.9420    9.1690 C.3   214  CYS214      0.0970
     70  SG        43.7240   16.3210    9.0230 S.3   214  CYS214     -0.0800
     71  N         46.4800   17.0740   10.9980 N.am  215  SER215     -0.1938
     72  CA        47.4130   16.4560   11.9530 C.3   215  SER215      0.2055
     73  C         47.3720   14.9180   11.9000 C.2   215  SER215      0.2642
     74  O         48.3980   14.2480   11.7430 O.2   215  SER215     -0.2714
     75  CB        47.0520   16.9210   13.3720 C.3   215  SER215      0.2130
     76  OG        47.9800   16.3450   14.2550 O.3   215  SER215     -0.2179
     77  N         46.1810   14.3380   12.0210 N.am  216  ALA216     -0.1977
     78  CA        45.9660   12.8940   11.8750 C.3   216  ALA216      0.1597
     79  C         45.6830   12.4840   10.4310 C.2   216  ALA216      0.2287
     80  O         45.8140   11.3030   10.0410 O.2   216  ALA216     -0.2864
     81  CB        44.8090   12.4460   12.8280 C.3   216  ALA216      0.0319
     82  N         42.7420   12.7890    8.8040 N.3   218  ILE218     -0.1231
     83  CA        41.4340   12.1790    8.7070 C.3   218  ILE218      0.1692
     84  C         40.3040   13.1980    8.8620 C.2   218  ILE218      0.2593
     85  O         39.3850   13.1730    8.0680 O.2   218  ILE218     -0.2718
     86  CB        41.2750   10.9390    9.6430 C.3   218  ILE218      0.0266
     87  CG1       41.4380   11.2810   11.1230 C.3   218  ILE218      0.0019
     88  CG2       42.2900    9.8350    9.2330 C.3   218  ILE218      0.0020
     89  CD1       41.1980   10.0140   12.0400 C.3   218  ILE218      0.0001
     90  N         40.3020   14.1070    9.8290 N.am  219  GLY219     -0.1942
     91  CA        39.0710   14.9110   10.0300 C.3   219  GLY219      0.2014
     92  C         38.9460   16.0900    9.0810 C.2   219  GLY219      0.2638
     93  O         37.9480   16.1910    8.3490 O.2   219  GLY219     -0.2714
     94  N         39.9480   16.9720    9.1130 N.am  220  ARG220     -0.1977
     95  CA        39.9940   18.1890    8.3030 C.3   220  ARG220      0.1597
     96  C         40.3030   17.6930    6.8700 C.2   220  ARG220      0.2287
     97  O         39.5980   18.0900    5.9080 O.2   220  ARG220     -0.2864
     98  CB        40.9730   19.2490    8.8410 C.3   220  ARG220      0.0334
     99  CG        40.4730   19.8480   10.1730 C.3   220  ARG220      0.0492
    100  CD        41.4900   20.7110   10.8860 C.3   220  ARG220      0.2205
    101  NE        42.4800   19.8860   11.5660 N.pl3 220  ARG220     -0.0865
    102  CZ        43.5030   20.3940   12.2440 C.cat 220  ARG220      0.5346
    103  NH1       43.6440   21.7200   12.3350 N.pl3 220  ARG220      0.1354
    104  NH2       44.3580   19.5830   12.8680 N.pl3 220  ARG220      0.1354
    105  N         35.5310   13.8690   11.2080 N.3   261  GLN261     -0.1245
    106  CA        35.7090   13.4350   12.5880 C.3   261  GLN261      0.1566
    107  C         34.6110   13.9190   13.5440 C.2   261  GLN261      0.2260
    108  O         34.6120   13.5190   14.6970 O.2   261  GLN261     -0.2867
    109  CB        37.0870   13.9340   13.0630 C.3   261  GLN261      0.0367
    110  CG        38.2560   12.9930   12.7010 C.3   261  GLN261      0.0905
    111  CD        38.1880   11.7470   13.5650 C.2   261  GLN261      0.2608
    112  OE1       38.3740   11.8480   14.7760 O.2   261  GLN261     -0.2717
    113  NE2       37.8660   10.5860   12.9610 N.am  261  GLN261     -0.0878
    114  N         31.4390   18.6460   11.0670 N.3   265  GLN265     -0.1245
    115  CA        32.1860   18.6090    9.7970 C.3   265  GLN265      0.1566
    116  C         31.3970   17.9970    8.6340 C.2   265  GLN265      0.2260
    117  O         31.5260   18.4270    7.4870 O.2   265  GLN265     -0.2867
    118  CB        33.5390   17.9110    9.9170 C.3   265  GLN265      0.0367
    119  CG        34.4320   18.5980   10.9230 C.3   265  GLN265      0.0905
    120  CD        35.7070   17.8440   11.2040 C.2   265  GLN265      0.2608
    121  OE1       35.7590   16.6270   11.0330 O.2   265  GLN265     -0.2717
    122  NE2       36.7330   18.5600   11.6610 N.am  265  GLN265     -0.0878
@<TRIPOS>BOND
     1    97    96    2
     2    96    95    1
     3   117   116    2
     4    65    66    1
     5    85    84    2
     6    95    98    1
     7    95    94    1
     8    93    92    2
     9   116   115    1
    10    83    82    1
    11    83    84    1
    12    83    86    1
    13    66    69    1
    14    66    67    1
    15    98    99    1
    16    84    90   am
    17    70    69    1
    18    92    94   am
    19    92    91    1
    20    88    86    1
    21    68    67    2
    22    86    87    1
    23    67    71   am
    24   115   118    1
    25   115   114    1
    26    90    91    1
    27   118   119    1
    28    80    79    2
    29    99   100    1
    30    79    78    1
    31   100   101    1
    32   119   120    1
    33    71    72    1
    34   121   120    2
    35    87    89    1
    36   120   122   am
    37   105   106    1
    38   101   102    2
    39    26    25    1
    40    74    73    2
    41    78    77    1
    42    78    81    1
    43    73    72    1
    44    73    77   am
    45    72    75    1
    46   102   103    1
    47   102   104    1
    48    23    24    2
    49    23    22    1
    50   106   109    1
    51   106   107    1
    52   110   109    1
    53   110   111    1
    54   113   111   am
    55    25    22    1
    56    25    27    1
    57    22    21    1
    58    75    76    1
    59   107   108    2
    60   111   112    2
    61    40    39    2
    62    39    38    1
    63    21    15   am
    64    16    15    2
    65    46    47    1
    66    47    48    1
    67    47    50    1
    68    52    51   ar
    69    54    55    1
    70    54    48   am
    71     8    10   ar
    72     8     6   ar
    73    56    55    1
    74    56    57    2
    75    10    11   ar
    76    15    14    1
    77    55    58    1
    78     4     3    2
    79    48    49    2
    80    41    38    1
    81    41    42    1
    82    38    37    1
    83     1     2    1
    84    50    51    1
    85    51    53   ar
    86     5     6    1
    87     5     2    1
    88     6     7   ar
    89    61    63   ar
    90    61    59   ar
    91    11    12    1
    92    11     9   ar
    93    63    64   ar
    94    44    45    1
    95    44    43    1
    96     3     2    1
    97    14    13    1
    98    14    17    1
    99    58    59    1
   100    59    60   ar
   101    64    62   ar
   102    42    43    1
   103     7     9   ar
   104    60    62   ar
   105    17    18    1
   106    18    19   ar
   107    18    20   ar
   108    36    35    1
   109    35    34    1
   110    28    29    1
   111    33    34    1
   112    33    32    2
   113    29    32    1
   114    29    30    1
   115    30    31    2
