@<TRIPOS>MOLECULE
tmp/2f6zA00.pdb
 159 150 0 0 0
SMALL
GASTEIGER

@<TRIPOS>ATOM
      1  N         25.3750   10.9990   10.9440 N.3    19  TYR19      -0.1241
      2  CA        26.8100   10.7610   11.0890 C.3    19  TYR19       0.1605
      3  C         27.0800    9.3840   11.7060 C.2    19  TYR19       0.2264
      4  O         27.9240    8.6030   11.2500 O.2    19  TYR19      -0.2867
      5  CB        27.4380   11.9230   11.8610 C.3    19  TYR19       0.0534
      6  CG        28.9330   11.7670   11.9740 C.ar   19  TYR19      -0.0201
      7  CD1       29.7330   11.8140   10.8330 C.ar   19  TYR19      -0.0009
      8  CD2       29.5330   11.5620   13.2090 C.ar   19  TYR19      -0.0009
      9  CE1       31.1030   11.6610   10.9230 C.ar   19  TYR19       0.0417
     10  CE2       30.9070   11.4050   13.3110 C.ar   19  TYR19       0.0417
     11  CZ        31.6730   11.4590   12.1580 C.ar   19  TYR19       0.1957
     12  OH        33.0310   11.3000   12.3110 O.3    19  TYR19      -0.2866
     13  N         29.4180    6.1740   10.5750 N.3    23  ARG23      -0.1245
     14  CA        30.3720    5.4920   11.4530 C.3    23  ARG23       0.1563
     15  C         30.1050    3.9850   11.4460 C.2    23  ARG23       0.2260
     16  O         31.0490    3.1930   11.3720 O.2    23  ARG23      -0.2867
     17  CB        30.2400    6.0010   12.8930 C.3    23  ARG23       0.0307
     18  CG        30.5780    7.4750   13.0800 C.3    23  ARG23       0.0489
     19  CD        30.2450    7.9570   14.4940 C.3    23  ARG23       0.2205
     20  NE        31.3040    7.6140   15.4390 N.pl3  23  ARG23      -0.0865
     21  CZ        31.2790    6.5710   16.2610 C.cat  23  ARG23       0.5346
     22  NH1       30.2390    5.7500   16.2870 N.pl3  23  ARG23       0.1354
     23  NH2       32.3040    6.3590   17.0750 N.pl3  23  ARG23       0.1354
     24  N         49.4230    8.9170   15.8150 N.3    45  TYR45      -0.1241
     25  CA        48.3020    8.5360   16.6800 C.3    45  TYR45       0.1605
     26  C         48.1000    7.0230   16.6550 C.2    45  TYR45       0.2264
     27  O         48.0840    6.4060   15.5880 O.2    45  TYR45      -0.2867
     28  CB        47.0070    9.2030   16.1860 C.3    45  TYR45       0.0534
     29  CG        47.0860   10.7160   16.2700 C.ar   45  TYR45      -0.0201
     30  CD1       47.2040   11.3680   17.4900 C.ar   45  TYR45      -0.0009
     31  CD2       47.0530   11.5060   15.1150 C.ar   45  TYR45      -0.0009
     32  CE1       47.2780   12.7730   17.5290 C.ar   45  TYR45       0.0417
     33  CE2       47.1330   12.9140   15.1370 C.ar   45  TYR45       0.0417
     34  CZ        47.2380   13.5340   16.3690 C.ar   45  TYR45       0.1957
     35  OH        47.2960   14.9040   16.4710 O.3    45  TYR45      -0.2866
     36  N         45.5250    5.2850   17.0940 N.3    47  ASP47      -0.1225
     37  CA        44.2600    4.8070   16.5430 C.3    47  ASP47       0.1805
     38  C         43.9360    5.3380   15.1510 C.2    47  ASP47       0.2597
     39  O         42.7900    5.1950   14.6880 O.2    47  ASP47      -0.2718
     40  CB        43.1110    5.0590   17.5240 C.3    47  ASP47       0.1424
     41  CG        43.3090    4.3250   18.8450 C.2    47  ASP47       0.3668
     42  OD1       43.9930    3.2750   18.8680 O.co2  47  ASP47      -0.2456
     43  OD2       42.7880    4.8210   19.8640 O.co2  47  ASP47      -0.2456
     44  N         44.9460    5.9280   14.5160 N.am   48  VAL48      -0.1980
     45  CA        44.8120    6.4010   13.1300 C.3    48  VAL48       0.1595
     46  C         45.9050    5.7330   12.3050 C.2    48  VAL48       0.2287
     47  O         47.0870    6.0710   12.4130 O.2    48  VAL48      -0.2864
     48  CB        44.8840    7.9290   12.9440 C.3    48  VAL48       0.0276
     49  CG1       44.6300    8.2790   11.4600 C.3    48  VAL48       0.0022
     50  CG2       43.7890    8.5140   13.8230 C.3    48  VAL48       0.0022
     51  N         51.3120   19.3800   16.4700 N.3   119  LYS119     -0.1245
     52  CA        50.4530   18.4680   15.7270 C.3   119  LYS119      0.1561
     53  C         51.0060   18.1730   14.3370 C.2   119  LYS119      0.2260
     54  O         50.4030   17.3970   13.5980 O.2   119  LYS119     -0.2867
     55  CB        49.0550   19.0760   15.6400 C.3   119  LYS119      0.0271
     56  CG        48.3130   19.1540   16.9690 C.3   119  LYS119      0.0035
     57  CD        47.2610   18.0450   17.0820 C.3   119  LYS119      0.0206
     58  CE        45.9540   18.2940   16.3010 C.3   119  LYS119      0.1093
     59  NZ        45.1690   19.3760   16.9020 N.3   119  LYS119     -0.1314
     60  N         40.8890   22.3580   14.7190 N.3   180  ASP180     -0.1225
     61  CA        40.7720   20.9030   14.7740 C.3   180  ASP180      0.1805
     62  C         39.3900   20.5280   15.3310 C.2   180  ASP180      0.2597
     63  O         38.8690   21.1780   16.2570 O.2   180  ASP180     -0.2718
     64  CB        41.9000   20.3520   15.6530 C.3   180  ASP180      0.1424
     65  CG        42.0470   18.8460   15.5200 C.2   180  ASP180      0.3668
     66  OD1       41.4850   18.3010   14.5520 O.co2 180  ASP180     -0.2456
     67  OD2       42.7000   18.2450   16.4050 O.co2 180  ASP180     -0.2456
     68  N         38.7970   19.4800   14.7630 N.am  181  PHE181     -0.1976
     69  CA        37.4340   19.0230   15.0560 C.3   181  PHE181      0.1639
     70  C         36.3590   20.0970   14.8480 C.2   181  PHE181      0.2290
     71  O         35.2450   20.0180   15.3840 O.2   181  PHE181     -0.2864
     72  CB        37.3380   18.3980   16.4570 C.3   181  PHE181      0.0560
     73  CG        38.1730   17.1540   16.6110 C.ar  181  PHE181     -0.0200
     74  CD1       39.3740   17.2270   17.2950 C.ar  181  PHE181     -0.0042
     75  CD2       37.7630   15.9350   16.0900 C.ar  181  PHE181     -0.0042
     76  CE1       40.1800   16.1210   17.4680 C.ar  181  PHE181     -0.0003
     77  CE2       38.5730   14.8160   16.2500 C.ar  181  PHE181     -0.0003
     78  CZ        39.7770   14.9200   16.9270 C.ar  181  PHE181     -0.0000
     79  N         46.2010   17.0350    7.5020 N.3   214  CYS214     -0.1221
     80  CA        45.9080   17.8680    8.6640 C.3   214  CYS214      0.1808
     81  C         46.7850   17.2860    9.7680 C.2   214  CYS214      0.2602
     82  O         47.9650   17.0500    9.5100 O.2   214  CYS214     -0.2717
     83  CB        44.3890   17.8730    8.8610 C.3   214  CYS214      0.0970
     84  SG        43.5300   16.2510    8.7660 S.3   214  CYS214     -0.0800
     85  N         46.2570   17.0590   10.9680 N.am  215  SER215     -0.1938
     86  CA        47.1360   16.4090   11.9220 C.3   215  SER215      0.2055
     87  C         46.9930   14.8960   11.8330 C.2   215  SER215      0.2642
     88  O         48.0210   14.2310   11.6410 O.2   215  SER215     -0.2714
     89  CB        46.8980   16.9300   13.3330 C.3   215  SER215      0.2130
     90  OG        47.8190   16.2990   14.1900 O.3   215  SER215     -0.2179
     91  N         45.7760   14.3670   11.9250 N.am  216  ALA216     -0.1977
     92  CA        45.6450   12.9210   11.7240 C.3   216  ALA216      0.1597
     93  C         45.4710   12.5310   10.2580 C.2   216  ALA216      0.2287
     94  O         45.6210   11.3390    9.9400 O.2   216  ALA216     -0.2864
     95  CB        44.4190   12.4160   12.5140 C.3   216  ALA216      0.0319
     96  N         42.5830   12.7900    8.6270 N.3   218  ILE218     -0.1231
     97  CA        41.2480   12.2080    8.4550 C.3   218  ILE218      0.1692
     98  C         40.0980   13.2030    8.6080 C.2   218  ILE218      0.2593
     99  O         39.1320   13.1270    7.8460 O.2   218  ILE218     -0.2718
    100  CB        41.0510   10.9410    9.3330 C.3   218  ILE218      0.0266
    101  CG1       41.0230   11.3210   10.8300 C.3   218  ILE218      0.0019
    102  CG2       42.1460    9.9020    9.0440 C.3   218  ILE218      0.0020
    103  CD1       40.8420   10.1440   11.7900 C.3   218  ILE218      0.0001
    104  N         40.1280   14.1040    9.5870 N.am  219  GLY219     -0.1942
    105  CA        38.9320   14.9210    9.8460 C.3   219  GLY219      0.2014
    106  C         38.7730   16.0850    8.8730 C.2   219  GLY219      0.2638
    107  O         37.8560   16.1450    8.0380 O.2   219  GLY219     -0.2714
    108  N         39.7020   17.0360    8.9640 N.am  220  ARG220     -0.1977
    109  CA        39.7680   18.1930    8.0650 C.3   220  ARG220      0.1597
    110  C         40.1130   17.7140    6.6560 C.2   220  ARG220      0.2287
    111  O         39.4490   18.1250    5.6980 O.2   220  ARG220     -0.2864
    112  CB        40.7670   19.2370    8.5930 C.3   220  ARG220      0.0334
    113  CG        40.2140   19.8910    9.8460 C.3   220  ARG220      0.0492
    114  CD        41.1930   20.7280   10.6450 C.3   220  ARG220      0.2205
    115  NE        42.1480   19.8750   11.3580 N.pl3 220  ARG220     -0.0865
    116  CZ        43.1320   20.3550   12.1190 C.cat 220  ARG220      0.5346
    117  NH1       43.2650   21.6680   12.2310 N.pl3 220  ARG220      0.1354
    118  NH2       43.9800   19.5320   12.7460 N.pl3 220  ARG220      0.1354
    119  N         35.8690    6.2630    2.4940 N.3   253  ARG253     -0.1245
    120  CA        36.2330    5.5060    3.6880 C.3   253  ARG253      0.1563
    121  C         36.6520    4.0650    3.4030 C.2   253  ARG253      0.2260
    122  O         37.1500    3.3830    4.3100 O.2   253  ARG253     -0.2867
    123  CB        35.1170    5.5630    4.7370 C.3   253  ARG253      0.0307
    124  CG        35.1690    6.8820    5.5070 C.3   253  ARG253      0.0489
    125  CD        34.2400    6.7530    6.7120 C.3   253  ARG253      0.2205
    126  NE        34.2650    7.9290    7.5900 N.pl3 253  ARG253     -0.0865
    127  CZ        34.1320    7.8710    8.9130 C.cat 253  ARG253      0.5346
    128  NH1       34.1500    8.9920    9.6240 N.pl3 253  ARG253      0.1354
    129  NH2       33.9620    6.7390    9.5970 N.pl3 253  ARG253      0.1354
    130  N         40.4720    5.2580    7.0490 N.3   257  MET257     -0.1230
    131  CA        39.5000    5.2330    8.1360 C.3   257  MET257      0.1702
    132  C         39.2110    6.6570    8.6150 C.2   257  MET257      0.2592
    133  O         40.0500    7.5660    8.5240 O.2   257  MET257     -0.2718
    134  CB        40.0640    4.4410    9.3160 C.3   257  MET257      0.0401
    135  CG        41.3640    5.0080    9.8840 C.3   257  MET257      0.0596
    136  SD        41.9220    4.1890   11.4000 S.3   257  MET257     -0.1393
    137  CE        42.2220    2.5120   10.8180 C.3   257  MET257      0.0692
    138  N         37.9920    6.8150    9.1270 N.am  258  GLY258     -0.1957
    139  CA        37.6970    7.9980    9.9300 C.3   258  GLY258      0.1869
    140  C         37.5080    9.3130    9.2040 C.2   258  GLY258      0.2309
    141  O         37.4820   10.3670    9.8430 O.2   258  GLY258     -0.2863
    142  N         35.3740   13.8570   10.8880 N.3   261  GLN261     -0.1245
    143  CA        35.4550   13.4550   12.2930 C.3   261  GLN261      0.1566
    144  C         34.3140   13.8880   13.2000 C.2   261  GLN261      0.2260
    145  O         34.1900   13.4200   14.3460 O.2   261  GLN261     -0.2867
    146  CB        36.8120   13.8910   12.8510 C.3   261  GLN261      0.0367
    147  CG        37.9020   12.8870   12.4610 C.3   261  GLN261      0.0905
    148  CD        37.8290   11.6640   13.3500 C.2   261  GLN261      0.2608
    149  OE1       38.1150   11.7010   14.5610 O.2   261  GLN261     -0.2717
    150  NE2       37.4030   10.5540   12.7460 N.am  261  GLN261     -0.0878
    151  N         31.1430   18.6190   10.7480 N.3   265  GLN265     -0.1245
    152  CA        31.9560   18.6370    9.5150 C.3   265  GLN265      0.1566
    153  C         31.1790   17.9860    8.3680 C.2   265  GLN265      0.2260
    154  O         31.3240   18.4160    7.2140 O.2   265  GLN265     -0.2867
    155  CB        33.2770   17.8900    9.7290 C.3   265  GLN265      0.0367
    156  CG        34.2960   18.6880   10.5500 C.3   265  GLN265      0.0905
    157  CD        35.4810   17.8410   10.9820 C.2   265  GLN265      0.2608
    158  OE1       35.5070   16.6230   10.7930 O.2   265  GLN265     -0.2717
    159  NE2       36.4920   18.4900   11.5300 N.am  265  GLN265     -0.0878
@<TRIPOS>BOND
     1   119   120    1
     2   121   120    1
     3   121   122    2
     4   120   123    1
     5   123   124    1
     6   124   125    1
     7   111   110    2
     8   110   109    1
     9   125   126    1
    10   130   131    1
    11   154   153    2
    12    79    80    1
    13   126   127    2
    14    99    98    2
    15   107   106    2
    16   109   112    1
    17   109   108    1
    18   131   132    1
    19   131   134    1
    20   153   152    1
    21    97    98    1
    22    97    96    1
    23    97   100    1
    24   133   132    2
    25   112   113    1
    26    98   104   am
    27   132   138   am
    28    80    83    1
    29    80    81    1
    30    84    83    1
    31   106   108   am
    32   106   105    1
    33   127   129    1
    34   127   128    1
    35   102   100    1
    36   138   139    1
    37   140   141    2
    38   140   139    1
    39   134   135    1
    40   100   101    1
    41    82    81    2
    42   152   155    1
    43   152   151    1
    44   104   105    1
    45   155   156    1
    46    81    85   am
    47   113   114    1
    48   135   136    1
    49    94    93    2
    50    93    92    1
    51   156   157    1
    52    13    14    1
    53   114   115    1
    54   158   157    2
    55   137   136    1
    56   101   103    1
    57     7     9   ar
    58     7     6   ar
    59   142   143    1
    60     9    11   ar
    61     1     2    1
    62    85    86    1
    63   157   159   am
    64     2     3    1
    65     2     5    1
    66     4     3    2
    67   115   116    2
    68    16    15    2
    69    15    14    1
    70    14    17    1
    71    49    48    1
    72    88    87    2
    73    92    91    1
    74    92    95    1
    75    87    86    1
    76    87    91   am
    77     5     6    1
    78    86    89    1
    79     6     8   ar
    80   116   117    1
    81   116   118    1
    82    11    12    1
    83    11    10   ar
    84   143   146    1
    85   143   144    1
    86    46    47    2
    87    46    45    1
    88   147   146    1
    89   147   148    1
    90   150   148   am
    91    17    18    1
    92    48    45    1
    93    48    50    1
    94    18    19    1
    95    45    44    1
    96   144   145    2
    97     8    10   ar
    98    89    90    1
    99   148   149    2
   100    54    53    2
   101    53    52    1
   102    19    20    1
   103    44    38   am
   104    66    65   ar
   105    39    38    2
   106    60    61    1
   107    68    69    1
   108    68    62   am
   109    61    62    1
   110    61    64    1
   111    70    69    1
   112    70    71    2
   113    69    72    1
   114    31    33   ar
   115    31    29   ar
   116    33    34   ar
   117    38    37    1
   118    62    63    2
   119    20    21    2
   120    65    64    1
   121    65    67   ar
   122    27    26    2
   123    55    52    1
   124    55    56    1
   125    52    51    1
   126    24    25    1
   127    75    77   ar
   128    75    73   ar
   129    28    29    1
   130    28    25    1
   131    77    78   ar
   132    21    22    1
   133    21    23    1
   134    29    30   ar
   135    58    59    1
   136    58    57    1
   137    34    35    1
   138    34    32   ar
   139    72    73    1
   140    37    36    1
   141    37    40    1
   142    73    74   ar
   143    26    25    1
   144    78    76   ar
   145    56    57    1
   146    74    76   ar
   147    30    32   ar
   148    40    41    1
   149    41    42   ar
   150    41    43   ar
