@<TRIPOS>MOLECULE
tmp/2f70A00.pdb
 164 154 0 0 0
SMALL
GASTEIGER

@<TRIPOS>ATOM
      1  N        -21.4150   59.8110   45.8920 N.3    19  TYR19      -0.1241
      2  CA       -20.8930   58.4510   45.9950 C.3    19  TYR19       0.1605
      3  C        -21.9370   57.5190   46.6200 C.2    19  TYR19       0.2264
      4  O        -22.1240   56.3980   46.1290 O.2    19  TYR19      -0.2867
      5  CB       -19.5480   58.4180   46.7270 C.3    19  TYR19       0.0534
      6  CG       -19.0180   57.0060   46.8540 C.ar   19  TYR19      -0.0201
      7  CD1      -18.5830   56.2910   45.7350 C.ar   19  TYR19      -0.0009
      8  CD2      -18.9420   56.3870   48.0990 C.ar   19  TYR19      -0.0009
      9  CE1      -18.0930   54.9860   45.8680 C.ar   19  TYR19       0.0417
     10  CE2      -18.4580   55.0830   48.2340 C.ar   19  TYR19       0.0417
     11  CZ       -18.0430   54.3870   47.1030 C.ar   19  TYR19       0.1957
     12  OH       -17.5810   53.0950   47.2160 O.3    19  TYR19      -0.2866
     13  N        -23.8220   53.9040   45.4610 N.3    23  ARG23      -0.1245
     14  CA       -23.9680   52.6750   46.2420 C.3    23  ARG23       0.1563
     15  C        -25.4140   52.1980   46.2970 C.2    23  ARG23       0.2260
     16  O        -25.6840   50.9970   46.1940 O.2    23  ARG23      -0.2867
     17  CB       -23.4730   52.8700   47.6800 C.3    23  ARG23       0.0307
     18  CG       -22.0020   53.2570   47.7500 C.3    23  ARG23       0.0489
     19  CD       -21.6290   53.6220   49.1830 C.3    23  ARG23       0.2205
     20  NE       -21.5600   52.4130   49.9970 N.pl3  23  ARG23      -0.0865
     21  CZ       -22.2950   52.1730   51.0820 C.cat  23  ARG23       0.5346
     22  NH1      -23.1960   53.0360   51.5510 N.pl3  23  ARG23       0.1354
     23  NH2      -22.1140   51.0130   51.7000 N.pl3  23  ARG23       0.1354
     24  N        -26.4660   50.7170   42.7880 N.3    26  ALA26      -0.1245
     25  CA       -25.6120   49.7060   42.1540 C.3    26  ALA26       0.1562
     26  C        -26.3740   48.3930   42.0140 C.2    26  ALA26       0.2260
     27  O        -27.2010   48.0930   42.8750 O.2    26  ALA26      -0.2867
     28  CB       -24.3440   49.4850   43.0030 C.3    26  ALA26       0.0290
     29  N        -11.4000   38.0880   50.5620 N.3    45  TYR45      -0.1241
     30  CA       -12.3400   38.9090   51.3450 C.3    45  TYR45       0.1605
     31  C        -13.7580   38.3310   51.2920 C.2    45  TYR45       0.2264
     32  O        -14.3230   38.2100   50.2040 O.2    45  TYR45      -0.2867
     33  CB       -12.3980   40.3920   50.8950 C.3    45  TYR45       0.0534
     34  CG       -11.0200   41.0470   51.0040 C.ar   45  TYR45      -0.0201
     35  CD1      -10.4160   41.2680   52.2440 C.ar   45  TYR45      -0.0009
     36  CD2      -10.2800   41.3930   49.8610 C.ar   45  TYR45      -0.0009
     37  CE1       -9.1210   41.8490   52.3590 C.ar   45  TYR45       0.0417
     38  CE2       -8.9970   41.9510   49.9620 C.ar   45  TYR45       0.0417
     39  CZ        -8.4140   42.1890   51.2100 C.ar   45  TYR45       0.1957
     40  OH        -7.1470   42.7400   51.2390 O.3    45  TYR45      -0.2866
     41  N        -16.5590   39.7150   51.8400 N.3    47  ASP47      -0.1225
     42  CA       -17.5930   40.5770   51.2990 C.3    47  ASP47       0.1805
     43  C        -17.2810   40.9900   49.8720 C.2    47  ASP47       0.2597
     44  O        -17.8990   41.9230   49.4000 O.2    47  ASP47      -0.2718
     45  CB       -17.7650   41.8170   52.1790 C.3    47  ASP47       0.1424
     46  CG       -18.3350   41.4310   53.5640 C.2    47  ASP47       0.3668
     47  OD1      -18.8330   40.2950   53.7550 O.co2  47  ASP47      -0.2456
     48  OD2      -18.2820   42.2380   54.5080 O.co2  47  ASP47      -0.2456
     49  N        -16.3130   40.3710   49.2040 N.am   48  VAL48      -0.1980
     50  CA       -15.9540   40.7990   47.8530 C.3    48  VAL48       0.1595
     51  C        -15.9430   39.5180   47.0180 C.2    48  VAL48       0.2287
     52  O        -14.9720   38.7340   47.0520 O.2    48  VAL48      -0.2864
     53  CB       -14.5950   41.5670   47.7410 C.3    48  VAL48       0.0276
     54  CG1      -14.3380   41.9430   46.2640 C.3    48  VAL48       0.0022
     55  CG2      -14.6030   42.8230   48.5920 C.3    48  VAL48       0.0022
     56  N         -1.3480   41.6250   51.2480 N.3   119  LYS119     -0.1245
     57  CA        -2.5290   41.9510   50.4570 C.3   119  LYS119      0.1561
     58  C         -2.5590   41.2350   49.1090 C.2   119  LYS119      0.2260
     59  O         -3.5620   41.3410   48.4050 O.2   119  LYS119     -0.2867
     60  CB        -2.6510   43.4740   50.3330 C.3   119  LYS119      0.0271
     61  CG        -2.8390   44.1330   51.7070 C.3   119  LYS119      0.0035
     62  CD        -4.2840   44.4830   52.0760 C.3   119  LYS119      0.0206
     63  CE        -4.8440   45.6590   51.2670 C.3   119  LYS119      0.1093
     64  NZ        -4.4960   46.9940   51.8060 N.3   119  LYS119     -0.1314
     65  N         -3.9790   52.1010   49.4980 N.3   180  ASP180     -0.1225
     66  CA        -5.2740   51.4640   49.5890 C.3   180  ASP180      0.1805
     67  C         -6.3280   52.4380   50.1070 C.2   180  ASP180      0.2597
     68  O         -6.0280   53.2170   51.0160 O.2   180  ASP180     -0.2718
     69  CB        -5.1470   50.2400   50.4700 C.3   180  ASP180      0.1424
     70  CG        -6.3390   49.3190   50.2960 C.2   180  ASP180      0.3668
     71  OD1       -7.1430   49.5550   49.3570 O.co2 180  ASP180     -0.2456
     72  OD2       -6.4060   48.3610   51.1000 O.co2 180  ASP180     -0.2456
     73  N         -7.5380   52.4080   49.5570 N.am  181  PHE181     -0.1976
     74  CA        -8.6070   53.3560   49.9140 C.3   181  PHE181      0.1639
     75  C         -8.1640   54.7850   49.6300 C.2   181  PHE181      0.2290
     76  O         -8.7800   55.7380   50.1100 O.2   181  PHE181     -0.2864
     77  CB        -9.1460   53.1540   51.3450 C.3   181  PHE181      0.0560
     78  CG        -9.7290   51.7760   51.5050 C.ar  181  PHE181     -0.0200
     79  CD1       -9.0110   50.7860   52.1570 C.ar  181  PHE181     -0.0042
     80  CD2      -10.9750   51.4750   50.9650 C.ar  181  PHE181     -0.0042
     81  CE1       -9.5500   49.5070   52.2740 C.ar  181  PHE181     -0.0003
     82  CE2      -11.4910   50.1920   51.0630 C.ar  181  PHE181     -0.0003
     83  CZ       -10.7890   49.2140   51.7220 C.ar  181  PHE181     -0.0000
     84  N         -6.0510   44.7920   42.2380 N.3   214  CYS214     -0.1221
     85  CA        -5.4530   45.4710   43.3720 C.3   214  CYS214      0.1808
     86  C         -5.4340   44.4240   44.4910 C.2   214  CYS214      0.2602
     87  O         -4.9930   43.2980   44.2460 O.2   214  CYS214     -0.2717
     88  CB        -6.1330   46.8100   43.6770 C.3   214  CYS214      0.0970
     89  SG        -7.9490   46.7290   43.5880 S.3   214  CYS214     -0.0800
     90  N         -5.8330   44.7420   45.7200 N.am  215  SER215     -0.1938
     91  CA        -5.9520   43.6450   46.6780 C.3   215  SER215      0.2055
     92  C         -7.3030   42.9300   46.5860 C.2   215  SER215      0.2642
     93  O         -7.3630   41.7110   46.4330 O.2   215  SER215     -0.2714
     94  CB        -5.6920   44.1690   48.0930 C.3   215  SER215      0.2130
     95  OG        -5.7990   43.0640   48.9850 O.3   215  SER215     -0.2179
     96  N         -8.4010   43.6750   46.6650 N.am  216  ALA216     -0.1977
     97  CA        -9.7450   43.1030   46.5150 C.3   216  ALA216      0.1597
     98  C        -10.2210   43.1420   45.0460 C.2   216  ALA216      0.2287
     99  O        -11.1750   42.4580   44.6310 O.2   216  ALA216     -0.2864
    100  CB       -10.7030   43.9720   47.3180 C.3   216  ALA216      0.0319
    101  N        -11.4250   45.8740   43.4180 N.3   218  ILE218     -0.1231
    102  CA       -12.6310   46.7070   43.2810 C.3   218  ILE218      0.1692
    103  C        -12.3520   48.1870   43.4850 C.2   218  ILE218      0.2593
    104  O        -12.8710   48.9930   42.7150 O.2   218  ILE218     -0.2718
    105  CB       -13.7860   46.2470   44.2060 C.3   218  ILE218      0.0266
    106  CG1      -13.4520   46.3200   45.7180 C.3   218  ILE218      0.0019
    107  CG2      -14.2430   44.8340   43.8070 C.3   218  ILE218      0.0020
    108  CD1      -14.7070   45.9420   46.5650 C.3   218  ILE218      0.0001
    109  N        -11.5570   48.5710   44.4830 N.am  219  GLY219     -0.1942
    110  CA       -11.4160   50.0120   44.7350 C.3   219  GLY219      0.2014
    111  C        -10.5090   50.7210   43.7430 C.2   219  GLY219      0.2638
    112  O        -10.9540   51.5380   42.9190 O.2   219  GLY219     -0.2714
    113  N         -9.2150   50.4170   43.8310 N.am  220  ARG220     -0.1977
    114  CA        -8.2030   50.9040   42.8820 C.3   220  ARG220      0.1597
    115  C         -8.4570   50.3830   41.4650 C.2   220  ARG220      0.2287
    116  O         -8.4250   51.1620   40.5030 O.2   220  ARG220     -0.2864
    117  CB        -6.7680   50.5910   43.3820 C.3   220  ARG220      0.0334
    118  CG        -6.4540   51.3920   44.6590 C.3   220  ARG220      0.0492
    119  CD        -5.2320   50.9610   45.4780 C.3   220  ARG220      0.2205
    120  NE        -5.4720   49.7060   46.2000 N.pl3 220  ARG220     -0.0865
    121  CZ        -4.5500   49.0840   46.9350 C.cat 220  ARG220      0.5346
    122  NH1       -3.3290   49.6060   47.0550 N.pl3 220  ARG220      0.1354
    123  NH2       -4.8500   47.9430   47.5510 N.pl3 220  ARG220      0.1354
    124  N        -20.4190   48.3750   37.3410 N.3   253  ARG253     -0.1245
    125  CA       -20.9910   47.7010   38.5070 C.3   253  ARG253      0.1563
    126  C        -22.0440   46.6100   38.2810 C.2   253  ARG253      0.2260
    127  O        -22.3900   45.8770   39.2160 O.2   253  ARG253     -0.2867
    128  CB       -21.4770   48.7480   39.5130 C.3   253  ARG253      0.0307
    129  CG       -20.3520   49.2210   40.4440 C.3   253  ARG253      0.0489
    130  CD       -20.8530   50.3570   41.3360 C.3   253  ARG253      0.2205
    131  NE       -19.8590   50.7790   42.3440 N.pl3 253  ARG253     -0.0865
    132  CZ       -19.9990   50.7580   43.6730 C.cat 253  ARG253      0.5346
    133  NH1      -19.0390   51.2200   44.4610 N.pl3 253  ARG253      0.1354
    134  NH2      -21.1040   50.3130   44.2580 N.pl3 253  ARG253      0.1354
    135  N        -19.1680   43.9700   41.7650 N.3   257  MET257     -0.1182
    136  CA       -19.5860   44.7880   42.9060 C.3   257  MET257      0.1917
    137  C        -18.4910   45.7110   43.4510 C.2   257  MET257      0.2635
    138  O        -17.2940   45.3930   43.3690 O.2   257  MET257     -0.2714
    139  CB       -20.0710   43.8330   44.0090 C.2   257  MET257      0.0083
    140  CG       -18.9550   43.0030   44.6960 C.2   257  MET257      0.0282
    141  SD       -19.4050   42.1320   46.2060 S.3   257  MET257     -0.1125
    142  CE       -20.7510   41.0410   45.6790 C.3   257  MET257      0.0742
    143  N        -18.9110   46.8640   43.9710 N.am  258  GLY258     -0.1954
    144  CA       -18.0400   47.7030   44.7910 C.3   258  GLY258      0.1869
    145  C        -16.9790   48.5280   44.0980 C.2   258  GLY258      0.2309
    146  O        -16.1100   49.0740   44.7810 O.2   258  GLY258     -0.2863
    147  N        -14.1470   52.5090   45.7890 N.3   261  GLN261     -0.1245
    148  CA       -14.4740   52.2700   47.1830 C.3   261  GLN261      0.1566
    149  C        -14.6090   53.5020   48.0710 C.2   261  GLN261      0.2260
    150  O        -15.0360   53.3390   49.2130 O.2   261  GLN261     -0.2867
    151  CB       -13.4350   51.3140   47.7830 C.3   261  GLN261      0.0367
    152  CG       -13.7290   49.8500   47.4450 C.3   261  GLN261      0.0905
    153  CD       -14.9080   49.2940   48.2330 C.2   261  GLN261      0.2608
    154  OE1      -14.7410   49.1100   49.4280 O.2   261  GLN261     -0.2717
    155  NE2      -16.0670   49.0420   47.6180 N.am  261  GLN261     -0.0878
    156  N        -12.0290   58.6180   45.5850 N.3   265  GLN265     -0.1245
    157  CA       -11.6740   57.8580   44.3810 C.3   265  GLN265      0.1566
    158  C        -12.5970   58.2040   43.2070 C.2   265  GLN265      0.2260
    159  O        -12.1330   58.3070   42.0750 O.2   265  GLN265     -0.2867
    160  CB       -11.6530   56.3420   44.6520 C.3   265  GLN265      0.0367
    161  CG       -10.4180   55.8490   45.4410 C.3   265  GLN265      0.0905
    162  CD       -10.5550   54.3970   45.8560 C.2   265  GLN265      0.2608
    163  OE1      -11.6490   53.8280   45.7310 O.2   265  GLN265     -0.2717
    164  NE2       -9.4640   53.7870   46.3140 N.am  265  GLN265     -0.0878
@<TRIPOS>BOND
     1   124   125    1
     2   126   125    1
     3   126   127    2
     4   125   128    1
     5   128   129    1
     6   129   130    1
     7   116   115    2
     8   130   131    1
     9   115   114    1
    10   135   136    1
    11    26    25    1
    12    26    27    2
    13   159   158    2
    14    25    24    1
    15    25    28    1
    16    84    85    1
    17   131   132    2
    18   104   103    2
    19   114   117    1
    20   114   113    1
    21   136   137    1
    22   136   139    1
    23   112   111    2
    24   158   157    1
    25   102   101    1
    26   102   103    1
    27   102   105    1
    28   138   137    2
    29    85    88    1
    30    85    86    1
    31   117   118    1
    32   137   143   am
    33   103   109   am
    34    89    88    1
    35   132   134    1
    36   132   133    1
    37   111   113   am
    38   111   110    1
    39   107   105    1
    40   143   144    1
    41   139   140    2
    42   145   146    2
    43   145   144    1
    44   105   106    1
    45    87    86    2
    46   157   160    1
    47   157   156    1
    48   109   110    1
    49    86    90   am
    50    99    98    2
    51   160   161    1
    52   118   119    1
    53   140   141    1
    54    98    97    1
    55   161   162    1
    56    13    14    1
    57   119   120    1
    58   142   141    1
    59   106   108    1
    60    90    91    1
    61   163   162    2
    62     7     9   ar
    63     7     6   ar
    64   147   148    1
    65   162   164   am
    66     9    11   ar
    67     1     2    1
    68     2     3    1
    69     2     5    1
    70     4     3    2
    71    16    15    2
    72   120   121    2
    73    14    15    1
    74    14    17    1
    75    54    53    1
    76    93    92    2
    77    97    96    1
    78    97   100    1
    79    92    96   am
    80    92    91    1
    81    91    94    1
    82     5     6    1
    83     6     8   ar
    84   121   122    1
    85   121   123    1
    86    51    52    2
    87    51    50    1
    88    11    12    1
    89    11    10   ar
    90   148   151    1
    91   148   149    1
    92   152   151    1
    93   152   153    1
    94   155   153   am
    95    17    18    1
    96    53    50    1
    97    53    55    1
    98    18    19    1
    99    50    49    1
   100   149   150    2
   101    94    95    1
   102     8    10   ar
   103   153   154    2
   104    59    58    2
   105    58    57    1
   106    19    20    1
   107    49    43   am
   108    71    70   ar
   109    44    43    2
   110    65    66    1
   111    73    74    1
   112    73    67   am
   113    66    67    1
   114    66    69    1
   115    75    74    1
   116    75    76    2
   117    36    38   ar
   118    36    34   ar
   119    43    42    1
   120    74    77    1
   121    38    39   ar
   122    20    21    2
   123    67    68    2
   124    32    31    2
   125    70    69    1
   126    70    72   ar
   127    60    57    1
   128    60    61    1
   129    57    56    1
   130    29    30    1
   131    33    34    1
   132    33    30    1
   133    80    82   ar
   134    80    78   ar
   135    34    35   ar
   136    82    83   ar
   137    21    22    1
   138    21    23    1
   139    39    40    1
   140    39    37   ar
   141    63    64    1
   142    63    62    1
   143    31    30    1
   144    42    41    1
   145    42    45    1
   146    77    78    1
   147    78    79   ar
   148    61    62    1
   149    83    81   ar
   150    79    81   ar
   151    45    46    1
   152    35    37   ar
   153    46    47   ar
   154    46    48   ar
