@<TRIPOS>MOLECULE
tmp/2f71A00.pdb
 121 114 0 0 0
SMALL
GASTEIGER

@<TRIPOS>ATOM
      1  N         49.5850    9.0130   15.7490 N.3    45  TYR45      -0.1241
      2  CA        48.4970    8.6230   16.6360 C.3    45  TYR45       0.1605
      3  C         48.2700    7.1270   16.6230 C.2    45  TYR45       0.2264
      4  O         48.2480    6.5270   15.5500 O.2    45  TYR45      -0.2867
      5  CB        47.1930    9.2810   16.1680 C.3    45  TYR45       0.0534
      6  CG        47.2450   10.7900   16.2080 C.ar   45  TYR45      -0.0201
      7  CD1       47.3660   11.4740   17.4100 C.ar   45  TYR45      -0.0009
      8  CD2       47.1890   11.5580   15.0480 C.ar   45  TYR45      -0.0009
      9  CE1       47.4320   12.8690   17.4430 C.ar   45  TYR45       0.0417
     10  CE2       47.2640   12.9520   15.0870 C.ar   45  TYR45       0.0417
     11  CZ        47.3670   13.6240   16.2840 C.ar   45  TYR45       0.1957
     12  OH        47.4020   14.9970   16.3790 O.3    45  TYR45      -0.2866
     13  N         45.6980    5.3600   17.0380 N.3    47  ASP47      -0.1225
     14  CA        44.4390    4.8790   16.4880 C.3    47  ASP47       0.1805
     15  C         44.1590    5.4050   15.0880 C.2    47  ASP47       0.2597
     16  O         43.0380    5.2370   14.6090 O.2    47  ASP47      -0.2718
     17  CB        43.2870    5.1550   17.4650 C.3    47  ASP47       0.1424
     18  CG        43.4730    4.4420   18.8050 C.2    47  ASP47       0.3668
     19  OD1       44.2040    3.4270   18.8500 O.co2  47  ASP47      -0.2456
     20  OD2       42.8870    4.9000   19.8050 O.co2  47  ASP47      -0.2456
     21  N         45.1450    6.0070   14.4320 N.am   48  VAL48      -0.1980
     22  CA        45.0260    6.3990   13.0290 C.3    48  VAL48       0.1595
     23  C         46.1500    5.7930   12.1980 C.2    48  VAL48       0.2287
     24  O         47.3250    6.1450   12.3350 O.2    48  VAL48      -0.2864
     25  CB        45.0700    7.9210   12.8490 C.3    48  VAL48       0.0276
     26  CG1       44.8270    8.3060   11.4000 C.3    48  VAL48       0.0022
     27  CG2       44.0280    8.5880   13.7370 C.3    48  VAL48       0.0022
     28  N         51.3920   19.4940   16.4420 N.3   119  LYS119     -0.1245
     29  CA        50.4980   18.6120   15.7000 C.3   119  LYS119      0.1561
     30  C         51.0090   18.2610   14.3040 C.2   119  LYS119      0.2260
     31  O         50.4130   17.4540   13.5900 O.2   119  LYS119     -0.2867
     32  CB        49.1270   19.2870   15.6160 C.3   119  LYS119      0.0271
     33  CG        48.4440   19.4760   16.9650 C.3   119  LYS119      0.0035
     34  CD        47.4030   18.3660   17.2020 C.3   119  LYS119      0.0206
     35  CE        46.0740   18.3890   16.4220 C.3   119  LYS119      0.1093
     36  NZ        45.1180   19.4200   16.8380 N.3   119  LYS119     -0.1314
     37  N         41.0020   22.3530   14.6260 N.3   180  ASP180     -0.1225
     38  CA        40.8850   20.9070   14.7240 C.3   180  ASP180      0.1805
     39  C         39.4970   20.5370   15.2480 C.2   180  ASP180      0.2597
     40  O         38.9810   21.2090   16.1470 O.2   180  ASP180     -0.2718
     41  CB        41.9940   20.3570   15.6220 C.3   180  ASP180      0.1424
     42  CG        42.2100   18.8770   15.4390 C.2   180  ASP180      0.3668
     43  OD1       41.6310   18.3510   14.4750 O.co2 180  ASP180     -0.2456
     44  OD2       42.9550   18.2890   16.2520 O.co2 180  ASP180     -0.2456
     45  N         38.8990   19.4970   14.6700 N.am  181  PHE181     -0.1976
     46  CA        37.5280   19.0660   14.9510 C.3   181  PHE181      0.1639
     47  C         36.4840   20.1690   14.7600 C.2   181  PHE181      0.2290
     48  O         35.3790   20.1370   15.3140 O.2   181  PHE181     -0.2864
     49  CB        37.4560   18.4450   16.3420 C.3   181  PHE181      0.0560
     50  CG        38.2900   17.2070   16.4860 C.ar  181  PHE181     -0.0200
     51  CD1       39.5060   17.2730   17.1320 C.ar  181  PHE181     -0.0042
     52  CD2       37.8890   15.9850   15.9760 C.ar  181  PHE181     -0.0042
     53  CE1       40.2990   16.1580   17.2670 C.ar  181  PHE181     -0.0003
     54  CE2       38.6990   14.8580   16.1190 C.ar  181  PHE181     -0.0003
     55  CZ        39.8920   14.9620   16.7470 C.ar  181  PHE181     -0.0000
     56  N         46.2920   17.1030    7.3770 N.3   214  CYS214     -0.1221
     57  CA        46.0000   17.8700    8.5680 C.3   214  CYS214      0.1808
     58  C         46.9200   17.3290    9.6590 C.2   214  CYS214      0.2602
     59  O         48.1240   17.1400    9.4320 O.2   214  CYS214     -0.2717
     60  CB        44.4990   17.9060    8.7920 C.3   214  CYS214      0.0970
     61  SG        43.6610   16.3160    8.6780 S.3   214  CYS214     -0.0800
     62  N         46.4060   17.1010   10.8620 N.am  215  SER215     -0.1938
     63  CA        47.2500   16.4800   11.8700 C.3   215  SER215      0.2055
     64  C         47.1790   14.9590   11.7570 C.2   215  SER215      0.2642
     65  O         48.2160   14.3130   11.6110 O.2   215  SER215     -0.2714
     66  CB        46.9290   16.9710   13.2780 C.3   215  SER215      0.2130
     67  OG        47.8680   16.3680   14.1500 O.3   215  SER215     -0.2179
     68  N         45.9800   14.3950   11.8260 N.am  216  ALA216     -0.1977
     69  CA        45.8230   12.9480   11.6570 C.3   216  ALA216      0.1597
     70  C         45.6410   12.5820   10.1930 C.2   216  ALA216      0.2287
     71  O         45.7680   11.3800    9.8750 O.2   216  ALA216     -0.2864
     72  CB        44.6230   12.4650   12.4460 C.3   216  ALA216      0.0319
     73  N         42.7600   12.8150    8.5320 N.3   218  ILE218     -0.1231
     74  CA        41.4190   12.2720    8.3300 C.3   218  ILE218      0.1692
     75  C         40.2340   13.2300    8.4840 C.2   218  ILE218      0.2593
     76  O         39.2790   13.1310    7.7100 O.2   218  ILE218     -0.2718
     77  CB        41.2040   11.0130    9.2140 C.3   218  ILE218      0.0266
     78  CG1       41.1950   11.3310   10.7100 C.3   218  ILE218      0.0019
     79  CG2       42.2200    9.9050    8.9660 C.3   218  ILE218      0.0020
     80  CD1       40.9670   10.1230   11.6220 C.3   218  ILE218      0.0001
     81  N         40.2590   14.1560    9.4460 N.am  219  GLY219     -0.1942
     82  CA        39.0670   14.9750    9.7420 C.3   219  GLY219      0.2014
     83  C         38.9230   16.1110    8.7620 C.2   219  GLY219      0.2638
     84  O         38.0160   16.1560    7.9220 O.2   219  GLY219     -0.2714
     85  N         39.8640   17.0500    8.8560 N.am  220  ARG220     -0.1977
     86  CA        39.8950   18.1890    7.9480 C.3   220  ARG220      0.1597
     87  C         40.2200   17.7500    6.5170 C.2   220  ARG220      0.2287
     88  O         39.5730   18.1640    5.5570 O.2   220  ARG220     -0.2864
     89  CB        40.8170   19.2770    8.4780 C.3   220  ARG220      0.0334
     90  CG        40.3220   19.8770    9.7830 C.3   220  ARG220      0.0492
     91  CD        41.3200   20.7300   10.5400 C.3   220  ARG220      0.2205
     92  NE        42.2600   19.8810   11.2630 N.pl3 220  ARG220     -0.0865
     93  CZ        43.2240   20.3760   12.0310 C.cat 220  ARG220      0.5346
     94  NH1       43.4070   21.6780   12.1280 N.pl3 220  ARG220      0.1354
     95  NH2       44.0450   19.5330   12.6450 N.pl3 220  ARG220      0.1354
     96  N         40.6780    5.2720    6.9230 N.3   257  MET257     -0.1196
     97  CA        39.7420    5.2910    8.0360 C.3   257  MET257      0.1786
     98  C         39.4000    6.6970    8.5040 C.2   257  MET257      0.2306
     99  O         40.2620    7.5780    8.4480 O.2   257  MET257     -0.2863
    100  CB        40.3140    4.4970    9.2050 C.2   257  MET257      0.0070
    101  CG        41.5690    5.0490    9.8240 C.2   257  MET257      0.0282
    102  SD        42.1250    4.2190   11.3290 S.3   257  MET257     -0.1125
    103  CE        42.4440    2.5630   10.7280 C.3   257  MET257      0.0742
    104  N         35.5070   13.8070   10.7690 N.3   261  GLN261     -0.1245
    105  CA        35.5630   13.4140   12.1670 C.3   261  GLN261      0.1566
    106  C         34.4490   13.9100   13.0720 C.2   261  GLN261      0.2260
    107  O         34.3620   13.4830   14.2310 O.2   261  GLN261     -0.2867
    108  CB        36.8870   13.8900   12.7660 C.3   261  GLN261      0.0367
    109  CG        38.0350   12.9410   12.3930 C.3   261  GLN261      0.0905
    110  CD        37.9530   11.6760   13.2240 C.2   261  GLN261      0.2608
    111  OE1       38.2240   11.7110   14.4300 O.2   261  GLN261     -0.2717
    112  NE2       37.5210   10.5720   12.6110 N.am  261  GLN261     -0.0878
    113  N         31.2930   18.6800   10.5750 N.3   265  GLN265     -0.1245
    114  CA        32.1150   18.6250    9.3590 C.3   265  GLN265      0.1566
    115  C         31.3510   18.0020    8.1930 C.2   265  GLN265      0.2260
    116  O         31.4820   18.4420    7.0330 O.2   265  GLN265     -0.2867
    117  CB        33.4420   17.8930    9.5800 C.3   265  GLN265      0.0367
    118  CG        34.4250   18.6700   10.4380 C.3   265  GLN265      0.0905
    119  CD        35.6130   17.8370   10.8750 C.2   265  GLN265      0.2608
    120  OE1       35.6070   16.6180   10.6660 O.2   265  GLN265     -0.2717
    121  NE2       36.6440   18.4720   11.4370 N.am  265  GLN265     -0.0878
@<TRIPOS>BOND
     1    88    87    2
     2    87    86    1
     3    96    97    1
     4   116   115    2
     5    56    57    1
     6    76    75    2
     7    84    83    2
     8    86    89    1
     9    86    85    1
    10    97    98    1
    11    97   100    1
    12   115   114    1
    13    74    75    1
    14    74    73    1
    15    74    77    1
    16    99    98    2
    17    89    90    1
    18    75    81   am
    19    57    60    1
    20    57    58    1
    21    61    60    1
    22    83    85   am
    23    83    82    1
    24    79    77    1
    25   100   101    2
    26    77    78    1
    27   114   117    1
    28   114   113    1
    29    59    58    2
    30    81    82    1
    31   117   118    1
    32    58    62   am
    33    90    91    1
    34   101   102    1
    35    71    70    2
    36    70    69    1
    37   118   119    1
    38    91    92    1
    39   120   119    2
    40    78    80    1
    41   103   102    1
    42   104   105    1
    43    62    63    1
    44   119   121   am
    45    92    93    2
    46    26    25    1
    47    65    64    2
    48    69    68    1
    49    69    72    1
    50    64    68   am
    51    64    63    1
    52    63    66    1
    53    93    94    1
    54    93    95    1
    55   105   108    1
    56   105   106    1
    57    23    24    2
    58    23    22    1
    59   109   108    1
    60   109   110    1
    61   112   110   am
    62    25    22    1
    63    25    27    1
    64    22    21    1
    65   106   107    2
    66   110   111    2
    67    66    67    1
    68    31    30    2
    69    30    29    1
    70    21    15   am
    71    43    42   ar
    72    16    15    2
    73    37    38    1
    74    45    46    1
    75    45    39   am
    76    38    39    1
    77    38    41    1
    78    47    46    1
    79    47    48    2
    80    46    49    1
    81     8    10   ar
    82     8     6   ar
    83    10    11   ar
    84    15    14    1
    85    39    40    2
    86    42    41    1
    87    42    44   ar
    88     4     3    2
    89    32    29    1
    90    32    33    1
    91    29    28    1
    92     1     2    1
    93    52    54   ar
    94    52    50   ar
    95    54    55   ar
    96     5     6    1
    97     5     2    1
    98     6     7   ar
    99    11    12    1
   100    11     9   ar
   101    49    50    1
   102    35    36    1
   103    35    34    1
   104    50    51   ar
   105    14    13    1
   106    14    17    1
   107     3     2    1
   108    55    53   ar
   109    33    34    1
   110    51    53   ar
   111     7     9   ar
   112    17    18    1
   113    18    19   ar
   114    18    20   ar
