@<TRIPOS>MOLECULE
tmp/2f78A01.pdb
 101 97 0 0 0
SMALL
GASTEIGER

@<TRIPOS>ATOM
      1  N         59.7070   62.6410   56.9740 N.3    11  VAL11      -0.1245
      2  CA        59.2810   64.0440   57.0270 C.3    11  VAL11       0.1561
      3  C         58.0810   64.1810   57.9880 C.2    11  VAL11       0.2260
      4  O         57.1330   63.4050   57.9090 O.2    11  VAL11      -0.2867
      5  CB        58.9220   64.5670   55.5950 C.3    11  VAL11       0.0252
      6  CG1       58.0720   65.8110   55.6660 C.3    11  VAL11       0.0019
      7  CG2       60.1940   64.8360   54.8010 C.3    11  VAL11       0.0019
      8  N         55.3430   65.9900   58.4790 N.3    13  SER13      -0.1217
      9  CA        53.9560   66.0350   58.0080 C.3    13  SER13       0.1889
     10  C         53.3370   64.6500   57.7870 C.2    13  SER13       0.2288
     11  O         52.1220   64.5010   57.8560 O.2    13  SER13      -0.2866
     12  CB        53.8490   66.8560   56.7200 C.3    13  SER13       0.2089
     13  OG        54.5450   66.2370   55.6480 O.3    13  SER13      -0.2183
     14  N         63.9250   65.5630   53.4690 N.3    42  THR42      -0.1218
     15  CA        64.2340   64.5770   52.4160 C.3    42  THR42       0.1862
     16  C         65.7140   64.5770   52.0150 C.2    42  THR42       0.2287
     17  O         66.2990   63.5210   51.7800 O.2    42  THR42      -0.2866
     18  CB        63.3650   64.8000   51.1540 C.3    42  THR42       0.1770
     19  OG1       61.9770   64.8530   51.5220 O.3    42  THR42      -0.2211
     20  CG2       63.5850   63.6880   50.1310 C.3    42  THR42       0.0375
     21  N         59.2760   63.6590   50.5820 N.3    60  ARG60      -0.1231
     22  CA        58.3400   64.3470   49.6930 C.3    60  ARG60       0.1694
     23  C         58.9980   64.9770   48.4720 C.2    60  ARG60       0.2591
     24  O         58.3110   65.6040   47.6510 O.2    60  ARG60      -0.2718
     25  CB        57.6720   65.4700   50.4700 C.3    60  ARG60       0.0321
     26  CG        56.8850   65.0130   51.6770 C.3    60  ARG60       0.0489
     27  CD        55.4540   64.7880   51.3030 C.3    60  ARG60       0.2205
     28  NE        54.5520   65.0360   52.4060 N.pl3  60  ARG60      -0.0865
     29  CZ        53.2520   64.7930   52.3520 C.cat  60  ARG60       0.5346
     30  NH1       52.7040   64.3060   51.2350 N.pl3  60  ARG60       0.1354
     31  NH2       52.5020   65.0400   53.4150 N.pl3  60  ARG60       0.1354
     32  N         60.3210   64.8440   48.3760 N.am   61  LEU61      -0.1980
     33  CA        61.1060   65.4210   47.2850 C.3    61  LEU61       0.1596
     34  C         61.7140   64.2990   46.4540 C.2    61  LEU61       0.2287
     35  O         62.1150   63.2620   46.9950 O.2    61  LEU61      -0.2864
     36  CB        62.2410   66.2980   47.8250 C.3    61  LEU61       0.0297
     37  CG        61.9330   67.6840   48.3980 C.3    61  LEU61       0.0022
     38  CD1       63.2060   68.3160   48.9430 C.3    61  LEU61       0.0001
     39  CD2       61.2950   68.5820   47.3530 C.3    61  LEU61       0.0001
     40  N         54.3970   77.6020   54.2450 N.3   109  TYR109     -0.1228
     41  CA        55.1490   77.0010   55.3370 C.3   109  TYR109      0.1721
     42  C         55.8610   75.7520   54.7840 C.2   109  TYR109      0.2437
     43  O         55.5400   75.2970   53.6860 O.2   109  TYR109     -0.2733
     44  CB        54.2090   76.6420   56.5030 C.3   109  TYR109      0.0547
     45  CG        53.3050   75.4690   56.2070 C.ar  109  TYR109     -0.0200
     46  CD1       53.7010   74.1690   56.5230 C.ar  109  TYR109     -0.0009
     47  CD2       52.0650   75.6510   55.6030 C.ar  109  TYR109     -0.0009
     48  CE1       52.8960   73.0920   56.2460 C.ar  109  TYR109      0.0417
     49  CE2       51.2420   74.5660   55.3170 C.ar  109  TYR109      0.0417
     50  CZ        51.6730   73.2890   55.6370 C.ar  109  TYR109      0.1957
     51  OH        50.8920   72.1970   55.3650 O.3   109  TYR109     -0.2866
     52  N         56.8490   75.2100   55.5200 N.am  110  PRO110     -0.2729
     53  CA        57.4420   75.7310   56.7500 C.3   110  PRO110      0.1401
     54  C         58.5470   76.7530   56.4670 C.2   110  PRO110      0.2269
     55  O         58.8930   76.9940   55.3040 O.2   110  PRO110     -0.2865
     56  CB        58.0370   74.4780   57.3940 C.3   110  PRO110      0.0296
     57  CG        58.4550   73.6350   56.2230 C.3   110  PRO110      0.0237
     58  CD        57.4720   73.9350   55.1130 C.3   110  PRO110      0.0939
     59  N         61.2960   73.0770   49.6750 N.3   116  ASN116     -0.1225
     60  CA        60.4250   72.5580   50.7270 C.3   116  ASN116      0.1785
     61  C         58.9700   72.6480   50.2680 C.2   116  ASN116      0.2597
     62  O         58.6990   72.8400   49.0780 O.2   116  ASN116     -0.2718
     63  CB        60.6550   73.3390   52.0350 C.3   116  ASN116      0.1169
     64  CG        60.4200   74.8310   51.8790 C.2   116  ASN116      0.2627
     65  OD1       59.8890   75.2910   50.8700 O.2   116  ASN116     -0.2716
     66  ND2       60.8270   75.5940   52.8780 N.am  116  ASN116     -0.0877
     67  N         58.0330   72.5150   51.1990 N.am  117  PHE117     -0.1976
     68  CA        56.6160   72.5580   50.8500 C.3   117  PHE117      0.1639
     69  C         56.2020   73.9140   50.2710 C.2   117  PHE117      0.2290
     70  O         55.3540   73.9810   49.3860 O.2   117  PHE117     -0.2864
     71  CB        55.7670   72.2120   52.0740 C.3   117  PHE117      0.0560
     72  CG        54.2990   72.1340   51.7850 C.ar  117  PHE117     -0.0200
     73  CD1       53.8160   71.2400   50.8330 C.ar  117  PHE117     -0.0042
     74  CD2       53.3980   72.9530   52.4610 C.ar  117  PHE117     -0.0042
     75  CE1       52.4630   71.1640   50.5610 C.ar  117  PHE117     -0.0003
     76  CE2       52.0450   72.8820   52.2000 C.ar  117  PHE117     -0.0003
     77  CZ        51.5720   71.9860   51.2490 C.ar  117  PHE117     -0.0000
     78  N         57.4270   74.0440   46.7170 N.3   120  HIS120     -0.1241
     79  CA        56.5640   73.0560   46.0820 C.3   120  HIS120      0.1621
     80  C         55.2260   73.6840   45.6650 C.2   120  HIS120      0.2264
     81  O         54.8240   73.5780   44.5070 O.2   120  HIS120     -0.2867
     82  CB        56.3570   71.8730   47.0370 C.3   120  HIS120      0.0745
     83  CG        55.3340   70.8790   46.5780 C.ar  120  HIS120      0.0817
     84  ND1       55.6250   69.8460   45.7100 N.ar  120  HIS120     -0.2268
     85  CD2       54.0250   70.7460   46.8920 C.ar  120  HIS120      0.1154
     86  CE1       54.5330   69.1350   45.4940 C.ar  120  HIS120      0.1986
     87  NE2       53.5480   69.6670   46.1940 N.ar  120  HIS120     -0.2212
     88  N         48.5480   69.4850   52.7560 N.3   158  PRO158     -0.2116
     89  CA        48.2180   68.1200   52.3810 C.3   158  PRO158      0.1372
     90  C         46.8540   67.6950   52.9330 C.2   158  PRO158      0.2244
     91  O         46.4870   68.1070   54.0250 O.2   158  PRO158     -0.2868
     92  CB        49.3460   67.3050   53.0210 C.3   158  PRO158      0.0268
     93  CG        50.4560   68.2660   53.2200 C.3   158  PRO158      0.0207
     94  CD        49.8090   69.5590   53.5240 C.3   158  PRO158      0.0892
     95  N         50.9150   66.4320   46.4790 N.3   181  THR181     -0.1218
     96  CA        52.2440   66.3620   47.0750 C.3   181  THR181      0.1862
     97  C         52.6030   64.8740   47.2330 C.2   181  THR181      0.2287
     98  O         51.8660   64.1160   47.8680 O.2   181  THR181     -0.2866
     99  CB        52.3410   67.1730   48.4070 C.3   181  THR181      0.1770
    100  OG1       53.5450   66.8250   49.1100 O.3   181  THR181     -0.2211
    101  CG2       51.1390   66.9310   49.3120 C.3   181  THR181      0.0375
@<TRIPOS>BOND
     1    81    80    2
     2    86    84   ar
     3    86    87   ar
     4    80    79    1
     5    84    83   ar
     6    79    78    1
     7    79    82    1
     8    87    85   ar
     9    34    35    2
    10    34    33    1
    11    95    96    1
    12    83    85   ar
    13    83    82    1
    14    96    97    1
    15    96    99    1
    16    97    98    2
    17    33    36    1
    18    33    32    1
    19    39    37    1
    20    24    23    2
    21    36    37    1
    22    32    23   am
    23    37    38    1
    24    99   100    1
    25    99   101    1
    26    23    22    1
    27    62    61    2
    28    70    69    2
    29    59    60    1
    30    22    25    1
    31    22    21    1
    32    20    18    1
    33    61    60    1
    34    61    67   am
    35    69    68    1
    36    25    26    1
    37    75    73   ar
    38    75    77   ar
    39    60    63    1
    40    73    72   ar
    41    68    67    1
    42    68    71    1
    43    65    64    2
    44    18    19    1
    45    18    15    1
    46    30    29    1
    47    77    76   ar
    48    27    26    1
    49    27    28    1
    50    17    16    2
    51    72    71    1
    52    72    74   ar
    53    64    63    1
    54    64    66   am
    55    16    15    1
    56    76    74   ar
    57    29    28    2
    58    29    31    1
    59    89    88    1
    60    89    90    1
    61    89    92    1
    62    15    14    1
    63    88    94    1
    64    90    91    2
    65    92    93    1
    66    93    94    1
    67    43    42    2
    68    40    41    1
    69    42    41    1
    70    42    52   am
    71     7     5    1
    72    58    52    1
    73    58    57    1
    74    55    54    2
    75    49    47   ar
    76    49    50   ar
    77    41    44    1
    78    51    50    1
    79    52    53    1
    80     5     6    1
    81     5     2    1
    82    47    45   ar
    83    50    48   ar
    84    13    12    1
    85    45    44    1
    86    45    46   ar
    87    57    56    1
    88    48    46   ar
    89    54    53    1
    90    12     9    1
    91    53    56    1
    92     1     2    1
    93     2     3    1
    94    10    11    2
    95    10     9    1
    96     4     3    2
    97     9     8    1
