@<TRIPOS>MOLECULE
tmp/2f7aB00.pdb
 115 113 0 0 0
SMALL
GASTEIGER

@<TRIPOS>ATOM
      1  N         42.8690   43.5830  -15.2510 N.3     8  VAL8       -0.1231
      2  CA        42.4310   42.1940  -15.1520 C.3     8  VAL8        0.1692
      3  C         43.2830   41.4400  -14.1080 C.2     8  VAL8        0.2593
      4  O         44.4900   41.6680  -13.9780 O.2     8  VAL8       -0.2718
      5  CB        42.4290   41.4800  -16.5320 C.3     8  VAL8        0.0266
      6  CG1       41.4640   42.1570  -17.5080 C.3     8  VAL8        0.0020
      7  CG2       43.8380   41.3870  -17.1410 C.3     8  VAL8        0.0020
      8  N         42.6390   40.5490  -13.3580 N.am    9  GLY9       -0.1942
      9  CA        43.2570   39.9130  -12.1830 C.3     9  GLY9        0.2014
     10  C         44.6350   39.3090  -12.3910 C.2     9  GLY9        0.2639
     11  O         45.5300   39.4850  -11.5530 O.2     9  GLY9       -0.2714
     12  N         44.8120   38.6020  -13.5080 N.am   10  SER10      -0.1949
     13  CA        46.0700   37.9070  -13.7980 C.3    10  SER10       0.1924
     14  C         47.2970   38.8130  -13.7260 C.2    10  SER10       0.2314
     15  O         48.3970   38.3520  -13.4040 O.2    10  SER10      -0.2863
     16  CB        46.0070   37.2530  -15.1820 C.3    10  SER10       0.2116
     17  OG        45.6050   38.1930  -16.1580 O.3    10  SER10      -0.2180
     18  N         37.0000   43.3340  -15.8710 N.3    38  GLY38      -0.1210
     19  CA        37.2370   42.8060  -17.2080 C.3    38  GLY38       0.1956
     20  C         37.5060   43.9010  -18.2220 C.2    38  GLY38       0.2613
     21  O         37.2000   45.0780  -17.9810 O.2    38  GLY38      -0.2717
     22  N         38.0600   43.5090  -19.3670 N.am   39  THR39      -0.1938
     23  CA        38.4680   44.4550  -20.4060 C.3    39  THR39       0.2028
     24  C         37.2700   45.2250  -20.9970 C.2    39  THR39       0.2642
     25  O         37.3730   46.4230  -21.2590 O.2    39  THR39      -0.2714
     26  CB        39.2640   43.7460  -21.5430 C.3    39  THR39       0.1808
     27  OG1       40.2430   42.8570  -20.9770 O.3    39  THR39      -0.2208
     28  CG2       39.9650   44.7660  -22.4330 C.3    39  THR39       0.0379
     29  N         36.1460   44.5400  -21.2010 N.am   40  LYS40      -0.1977
     30  CA        34.9270   45.1840  -21.7130 C.3    40  LYS40       0.1596
     31  C         34.4000   46.1940  -20.6910 C.2    40  LYS40       0.2287
     32  O         33.9380   47.2810  -21.0480 O.2    40  LYS40      -0.2864
     33  CB        33.8440   44.1390  -22.0190 C.3    40  LYS40       0.0298
     34  CG        32.7370   44.6130  -22.9630 C.3    40  LYS40       0.0038
     35  CD        33.2110   44.5890  -24.4150 C.3    40  LYS40       0.0206
     36  CE        32.0850   44.8220  -25.4090 C.3    40  LYS40       0.1093
     37  NZ        32.4960   44.4330  -26.7960 N.3    40  LYS40      -0.1314
     38  N         43.3640   42.4130  -21.6690 N.3    57  ARG57      -0.1231
     39  CA        43.8530   41.3420  -22.5300 C.3    57  ARG57       0.1694
     40  C         42.9140   41.0790  -23.7080 C.2    57  ARG57       0.2591
     41  O         42.9590   40.0100  -24.3130 O.2    57  ARG57      -0.2718
     42  CB        44.0270   40.0670  -21.7070 C.3    57  ARG57       0.0321
     43  CG        45.1910   40.1050  -20.7400 C.3    57  ARG57       0.0489
     44  CD        45.2820   38.7990  -19.9680 C.3    57  ARG57       0.2205
     45  NE        46.3590   38.8060  -18.9850 N.pl3  57  ARG57      -0.0865
     46  CZ        47.6490   38.6670  -19.2740 C.cat  57  ARG57       0.5346
     47  NH1       48.0630   38.5240  -20.5310 N.pl3  57  ARG57       0.1354
     48  NH2       48.5370   38.6690  -18.2940 N.pl3  57  ARG57       0.1354
     49  N         42.0700   42.0580  -24.0300 N.am   58  LEU58      -0.1980
     50  CA        41.2150   41.9950  -25.2080 C.3    58  LEU58       0.1596
     51  C         41.3150   43.3100  -25.9710 C.2    58  LEU58       0.2287
     52  O         41.4630   44.3720  -25.3730 O.2    58  LEU58      -0.2864
     53  CB        39.7550   41.7640  -24.8150 C.3    58  LEU58       0.0297
     54  CG        39.3530   40.4510  -24.1400 C.3    58  LEU58       0.0022
     55  CD1       37.8890   40.5280  -23.7180 C.3    58  LEU58       0.0001
     56  CD2       39.5850   39.2750  -25.0650 C.3    58  LEU58       0.0001
     57  N         38.3860   30.6480  -17.9360 N.3   106  TYR106     -0.1228
     58  CA        37.9970   31.6930  -16.9930 C.3   106  TYR106      0.1721
     59  C         38.0950   33.0360  -17.7220 C.2   106  TYR106      0.2437
     60  O         38.7540   33.1250  -18.7640 O.2   106  TYR106     -0.2733
     61  CB        38.9380   31.6840  -15.7770 C.3   106  TYR106      0.0547
     62  CG        40.3720   31.9620  -16.1510 C.ar  106  TYR106     -0.0200
     63  CD1       40.8530   33.2660  -16.1890 C.ar  106  TYR106     -0.0009
     64  CD2       41.2380   30.9310  -16.5070 C.ar  106  TYR106     -0.0009
     65  CE1       42.1460   33.5400  -16.5510 C.ar  106  TYR106      0.0417
     66  CE2       42.5560   31.2010  -16.8710 C.ar  106  TYR106      0.0417
     67  CZ        43.0000   32.5080  -16.8880 C.ar  106  TYR106      0.1957
     68  OH        44.2840   32.8070  -17.2630 O.3   106  TYR106     -0.2866
     69  N         37.4340   34.0800  -17.2020 N.am  107  PRO107     -0.2729
     70  CA        36.5060   34.1320  -16.0660 C.3   107  PRO107      0.1401
     71  C         35.1220   33.6200  -16.4590 C.2   107  PRO107      0.2269
     72  O         34.9160   33.2570  -17.6110 O.2   107  PRO107     -0.2865
     73  CB        36.4390   35.6280  -15.7570 C.3   107  PRO107      0.0296
     74  CG        36.6100   36.2660  -17.0890 C.3   107  PRO107      0.0237
     75  CD        37.6020   35.4080  -17.8210 C.3   107  PRO107      0.0939
     76  N         32.4650   39.3370  -24.2350 N.3   112  PRO112     -0.2102
     77  CA        33.7420   38.6560  -24.4360 C.3   112  PRO112      0.1504
     78  C         34.6930   38.8130  -23.2590 C.2   112  PRO112      0.2576
     79  O         34.7320   39.8660  -22.6240 O.2   112  PRO112     -0.2718
     80  CB        34.3220   39.3620  -25.6540 C.3   112  PRO112      0.0282
     81  CG        33.8130   40.7420  -25.5490 C.3   112  PRO112      0.0208
     82  CD        32.4550   40.6500  -24.9010 C.3   112  PRO112      0.0893
     83  N         35.4590   37.7600  -22.9990 N.am  113  ASN113     -0.1961
     84  CA        36.4090   37.7170  -21.8910 C.3   113  ASN113      0.1819
     85  C         37.5990   36.8170  -22.2490 C.2   113  ASN113      0.2621
     86  O         37.7100   36.3530  -23.3890 O.2   113  ASN113     -0.2715
     87  CB        35.6990   37.2440  -20.6140 C.3   113  ASN113      0.1195
     88  CG        35.0780   35.8740  -20.7610 C.2   113  ASN113      0.2630
     89  OD1       35.6150   35.0010  -21.4360 O.2   113  ASN113     -0.2716
     90  ND2       33.9450   35.6750  -20.1140 N.am  113  ASN113     -0.0877
     91  N         38.4800   36.5590  -21.2890 N.am  114  PHE114     -0.1974
     92  CA        39.6900   35.7790  -21.5570 C.3   114  PHE114      0.1639
     93  C         39.4180   34.4090  -22.1790 C.2   114  PHE114      0.2290
     94  O         40.1570   33.9780  -23.0520 O.2   114  PHE114     -0.2864
     95  CB        40.5170   35.6040  -20.2850 C.3   114  PHE114      0.0560
     96  CG        41.7980   34.8650  -20.5060 C.ar  114  PHE114     -0.0200
     97  CD1       42.8330   35.4490  -21.2370 C.ar  114  PHE114     -0.0042
     98  CD2       41.9700   33.5840  -20.0110 C.ar  114  PHE114     -0.0042
     99  CE1       44.0130   34.7600  -21.4550 C.ar  114  PHE114     -0.0003
    100  CE2       43.1430   32.8980  -20.2260 C.ar  114  PHE114     -0.0003
    101  CZ        44.1710   33.4840  -20.9420 C.ar  114  PHE114     -0.0000
    102  N         41.6010   32.9120  -12.4950 N.3   138  VAL138     -0.1245
    103  CA        42.7730   32.1080  -12.8230 C.3   138  VAL138      0.1561
    104  C         43.2870   31.2730  -11.6480 C.2   138  VAL138      0.2260
    105  O         43.6920   30.1260  -11.8460 O.2   138  VAL138     -0.2867
    106  CB        43.9340   32.9660  -13.4020 C.3   138  VAL138      0.0252
    107  CG1       44.4960   33.9350  -12.3600 C.3   138  VAL138      0.0019
    108  CG2       45.0330   32.0570  -13.9600 C.3   138  VAL138      0.0019
    109  N         48.3380   32.9220  -18.9740 N.3   155  PRO155     -0.2116
    110  CA        49.4870   33.7560  -19.3260 C.3   155  PRO155      0.1372
    111  C         50.7370   33.2480  -18.6350 C.2   155  PRO155      0.2244
    112  O         50.6510   32.7570  -17.5070 O.2   155  PRO155     -0.2868
    113  CB        49.1120   35.1430  -18.7750 C.3   155  PRO155      0.0268
    114  CG        47.6590   35.1200  -18.6070 C.3   155  PRO155      0.0207
    115  CD        47.3050   33.6970  -18.2660 C.3   155  PRO155      0.0892
@<TRIPOS>BOND
     1    37    36    1
     2    51    52    2
     3    51    50    1
     4    80    81    1
     5    80    77    1
     6    81    82    1
     7    36    35    1
     8    50    53    1
     9    50    49    1
    10    56    54    1
    11    82    76    1
    12    53    54    1
    13    77    76    1
    14    77    78    1
    15    35    34    1
    16    41    40    2
    17    54    55    1
    18    49    40   am
    19    40    39    1
    20    86    85    2
    21    78    83   am
    22    78    79    2
    23    94    93    2
    24    83    84    1
    25    34    33    1
    26    39    42    1
    27    39    38    1
    28    28    26    1
    29    85    84    1
    30    85    91   am
    31    93    92    1
    32    33    30    1
    33    84    87    1
    34    30    29    1
    35    30    31    1
    36    42    43    1
    37    92    91    1
    38    92    95    1
    39    26    27    1
    40    26    23    1
    41    99    97   ar
    42    99   101   ar
    43    89    88    2
    44    25    24    2
    45    97    96   ar
    46    29    24   am
    47    32    31    2
    48    24    23    1
    49   101   100   ar
    50    88    87    1
    51    88    90   am
    52    43    44    1
    53    47    46    1
    54    96    95    1
    55    96    98   ar
    56    23    22    1
    57   100    98   ar
    58    44    45    1
    59    22    20   am
    60   110   109    1
    61   110   113    1
    62   110   111    1
    63    46    45    2
    64    46    48    1
    65   109   115    1
    66   113   114    1
    67    60    59    2
    68   111   112    2
    69   114   115    1
    70    20    21    2
    71    20    19    1
    72    57    58    1
    73    75    69    1
    74    75    74    1
    75    59    69   am
    76    59    58    1
    77    72    71    2
    78     6     5    1
    79    68    67    1
    80    19    18    1
    81    69    70    1
    82     7     5    1
    83    74    73    1
    84    58    61    1
    85    67    66   ar
    86    67    65   ar
    87    66    64   ar
    88    65    63   ar
    89     5     2    1
    90    64    62   ar
    91    71    70    1
    92    63    62   ar
    93    17    16    1
    94    62    61    1
    95    70    73    1
    96     1     2    1
    97    16    13    1
    98     2     3    1
    99     3     4    2
   100     3     8   am
   101   108   106    1
   102    13    14    1
   103    13    12    1
   104    14    15    2
   105    12    10   am
   106   106   103    1
   107   106   107    1
   108     8     9    1
   109   103   102    1
   110   103   104    1
   111    10     9    1
   112    10    11    2
   113   105   104    2
