@<TRIPOS>MOLECULE
tmp/2f7aA00.pdb
 109 101 0 0 0
SMALL
GASTEIGER

@<TRIPOS>ATOM
      1  N         42.1970   27.9290    0.4010 N.3    17  LEU17      -0.1245
      2  CA        42.6760   26.5740    0.7070 C.3    17  LEU17       0.1561
      3  C         43.2930   25.8630   -0.5000 C.2    17  LEU17       0.2260
      4  O         43.9970   24.8830   -0.3270 O.2    17  LEU17      -0.2867
      5  CB        41.5510   25.7150    1.2970 C.3    17  LEU17       0.0270
      6  CG        40.9250   26.2630    2.5870 C.3    17  LEU17       0.0019
      7  CD1       39.9100   25.2850    3.1940 C.3    17  LEU17       0.0001
      8  CD2       41.9880   26.6400    3.6070 C.3    17  LEU17       0.0001
      9  N         47.1940   25.6920   -0.3010 N.3    20  GLY20      -0.1210
     10  CA        47.8470   24.8010    0.6500 C.3    20  GLY20       0.1956
     11  C         47.6880   23.3440    0.2480 C.2    20  GLY20       0.2612
     12  O         47.9310   22.9850   -0.8980 O.2    20  GLY20      -0.2717
     13  N         47.2290   22.5220    1.1840 N.am   21  LEU21      -0.1965
     14  CA        47.2250   21.0700    1.0240 C.3    21  LEU21       0.1728
     15  C         45.9690   20.4870    0.3730 C.2    21  LEU21       0.2616
     16  O         45.9740   19.3310   -0.0290 O.2    21  LEU21      -0.2715
     17  CB        47.3930   20.4060    2.3900 C.3    21  LEU21       0.0311
     18  CG        48.5910   20.8360    3.2280 C.3    21  LEU21       0.0022
     19  CD1       48.5560   20.1460    4.5780 C.3    21  LEU21       0.0001
     20  CD2       49.8980   20.5410    2.5190 C.3    21  LEU21       0.0001
     21  N         44.8980   21.2630    0.2570 N.am   22  LEU22      -0.1977
     22  CA        43.6220   20.6970   -0.2010 C.3    22  LEU22       0.1596
     23  C         43.7010   20.0010   -1.5690 C.2    22  LEU22       0.2287
     24  O         43.1810   18.8940   -1.7310 O.2    22  LEU22      -0.2864
     25  CB        42.4990   21.7500   -0.1790 C.3    22  LEU22       0.0297
     26  CG        41.1210   21.2860   -0.6590 C.3    22  LEU22       0.0022
     27  CD1       40.6640   20.0470    0.1120 C.3    22  LEU22       0.0001
     28  CD2       40.1050   22.4020   -0.5510 C.3    22  LEU22       0.0001
     29  N         45.2340   16.5610   -1.3970 N.3    25  ILE25      -0.1245
     30  CA        44.2840   15.7320   -0.6660 C.3    25  ILE25       0.1561
     31  C         43.1980   15.2420   -1.6080 C.2    25  ILE25       0.2260
     32  O         42.9250   14.0410   -1.6730 O.2    25  ILE25      -0.2867
     33  CB        43.6780   16.4670    0.5500 C.3    25  ILE25       0.0252
     34  CG1       44.7470   16.6520    1.6270 C.3    25  ILE25       0.0019
     35  CG2       42.4610   15.6900    1.1110 C.3    25  ILE25       0.0019
     36  CD1       44.3780   17.5770    2.7440 C.3    25  ILE25       0.0001
     37  N         35.1980   22.5090    3.7060 N.3    61  PHE61      -0.1241
     38  CA        36.4890   22.9220    4.2480 C.3    61  PHE61       0.1605
     39  C         36.4770   24.4290    4.3900 C.2    61  PHE61       0.2264
     40  O         36.3170   25.1310    3.3940 O.2    61  PHE61      -0.2867
     41  CB        37.5870   22.5280    3.2970 C.3    61  PHE61       0.0534
     42  CG        37.8430   21.0570    3.2360 C.ar   61  PHE61      -0.0203
     43  CD1       38.7530   20.4720    4.1030 C.ar   61  PHE61      -0.0042
     44  CD2       37.1990   20.2610    2.2970 C.ar   61  PHE61      -0.0042
     45  CE1       39.0320   19.1090    4.0290 C.ar   61  PHE61      -0.0003
     46  CE2       37.4590   18.8990    2.2160 C.ar   61  PHE61      -0.0003
     47  CZ        38.3760   18.3170    3.0910 C.ar   61  PHE61      -0.0000
     48  N         41.0930   20.6880   11.7420 N.3    76  LEU76      -0.1231
     49  CA        42.1150   19.9000   11.0600 C.3    76  LEU76       0.1693
     50  C         43.4810   20.3300   11.5770 C.2    76  LEU76       0.2591
     51  O         44.2770   19.4930   11.9700 O.2    76  LEU76      -0.2718
     52  CB        42.0100   20.0310    9.5390 C.3    76  LEU76       0.0284
     53  CG        40.7240   19.4820    8.9080 C.3    76  LEU76       0.0019
     54  CD1       40.7620   19.6120    7.4020 C.3    76  LEU76       0.0001
     55  CD2       40.4830   18.0280    9.3210 C.3    76  LEU76       0.0001
     56  N         43.7310   21.6370   11.5850 N.am   77  ARG77      -0.1980
     57  CA        44.9470   22.2030   12.1850 C.3    77  ARG77       0.1597
     58  C         44.8370   23.7130   12.3020 C.2    77  ARG77       0.2287
     59  O         44.0320   24.3450   11.6090 O.2    77  ARG77      -0.2864
     60  CB        46.1810   21.8510   11.3560 C.3    77  ARG77       0.0334
     61  CG        46.2360   22.5410   10.0070 C.3    77  ARG77       0.0492
     62  CD        47.3290   21.9690    9.1290 C.3    77  ARG77       0.2205
     63  NE        47.3610   22.6470    7.8320 N.pl3  77  ARG77      -0.0865
     64  CZ        48.2860   23.5260    7.4400 C.cat  77  ARG77       0.5346
     65  NH1       49.2920   23.8860    8.2280 N.pl3  77  ARG77       0.1354
     66  NH2       48.1920   24.0650    6.2350 N.pl3  77  ARG77       0.1354
     67  N         46.6960   26.7840   11.2370 N.3    79  GLU79      -0.1245
     68  CA        47.7140   27.2230   10.2970 C.3    79  GLU79       0.1567
     69  C         48.3670   28.5060   10.8160 C.2    79  GLU79       0.2260
     70  O         47.6860   29.3680   11.3800 O.2    79  GLU79      -0.2867
     71  CB        47.0730   27.4480    8.9180 C.3    79  GLU79       0.0388
     72  CG        48.0040   28.0470    7.9110 C.3    79  GLU79       0.1160
     73  CD        47.5560   27.8500    6.4770 C.2    79  GLU79       0.3649
     74  OE1       46.3570   27.6390    6.2350 O.co2  79  GLU79      -0.2457
     75  OE2       48.4300   27.9250    5.5950 O.co2  79  GLU79      -0.2457
     76  N         50.1800   29.1280    4.0000 N.3   163  SER163     -0.1217
     77  CA        50.0660   28.4780    2.6870 C.3   163  SER163      0.1889
     78  C         50.0930   29.4790    1.5200 C.2   163  SER163      0.2288
     79  O         50.3310   29.0940    0.3830 O.2   163  SER163     -0.2866
     80  CB        48.8250   27.5670    2.6120 C.3   163  SER163      0.2089
     81  OG        47.6410   28.2390    3.0170 O.3   163  SER163     -0.2183
     82  N         41.7320   25.6790   10.2420 N.3   186  ILE186     -0.1245
     83  CA        41.1230   25.0090    9.0910 C.3   186  ILE186      0.1561
     84  C         40.2250   23.8830    9.6150 C.2   186  ILE186      0.2260
     85  O         40.6810   23.0280   10.3770 O.2   186  ILE186     -0.2867
     86  CB        42.1720   24.3880    8.1540 C.3   186  ILE186      0.0252
     87  CG1       43.1430   25.4630    7.6350 C.3   186  ILE186      0.0019
     88  CG2       41.4660   23.6740    6.9800 C.3   186  ILE186      0.0019
     89  CD1       44.3390   24.9170    6.9120 C.3   186  ILE186      0.0001
     90  N         43.0060   12.6770    4.4890 N.3   206  ILE206     -0.1245
     91  CA        43.5060   13.8450    5.2040 C.3   206  ILE206      0.1561
     92  C         44.5440   13.3960    6.2320 C.2   206  ILE206      0.2260
     93  O         45.5980   14.0040    6.3480 O.2   206  ILE206     -0.2867
     94  CB        42.3830   14.6160    5.9220 C.3   206  ILE206      0.0252
     95  CG1       41.3750   15.1870    4.9140 C.3   206  ILE206      0.0019
     96  CG2       42.9710   15.7290    6.7790 C.3   206  ILE206      0.0019
     97  CD1       40.0300   15.5640    5.5590 C.3   206  ILE206      0.0001
     98  N         48.4820   14.6260    6.2760 N.3   210  TYR210     -0.1241
     99  CA        48.8890   15.2940    7.5150 C.3   210  TYR210      0.1605
    100  C         50.0420   14.5660    8.2210 C.2   210  TYR210      0.2264
    101  O         50.8710   15.2060    8.8700 O.2   210  TYR210     -0.2867
    102  CB        47.6850   15.4820    8.4620 C.3   210  TYR210      0.0534
    103  CG        46.9030   16.7600    8.1940 C.ar  210  TYR210     -0.0201
    104  CD1       46.6760   17.2040    6.8900 C.ar  210  TYR210     -0.0009
    105  CD2       46.4140   17.5350    9.2350 C.ar  210  TYR210     -0.0009
    106  CE1       45.9550   18.3680    6.6360 C.ar  210  TYR210      0.0417
    107  CE2       45.7080   18.7110    8.9890 C.ar  210  TYR210      0.0417
    108  CZ        45.4890   19.1230    7.6900 C.ar  210  TYR210      0.1957
    109  OH        44.8040   20.2920    7.4380 O.3   210  TYR210     -0.2866
@<TRIPOS>BOND
     1    24    23    2
     2    32    31    2
     3    31    30    1
     4    23    22    1
     5    29    30    1
     6    12    11    2
     7    30    33    1
     8    26    28    1
     9    26    25    1
    10    26    27    1
    11     3     4    2
    12     3     2    1
    13     9    10    1
    14    22    25    1
    15    22    21    1
    16    16    15    2
    17    11    10    1
    18    11    13   am
    19    21    15   am
    20    15    14    1
    21    79    78    2
    22     1     2    1
    23    33    35    1
    24    33    34    1
    25     2     5    1
    26    14    13    1
    27    14    17    1
    28     5     6    1
    29    78    77    1
    30    34    36    1
    31    46    44   ar
    32    46    47   ar
    33    44    42   ar
    34    17    18    1
    35    20    18    1
    36     6     7    1
    37     6     8    1
    38    80    77    1
    39    80    81    1
    40    77    76    1
    41    47    45   ar
    42    18    19    1
    43    42    41    1
    44    42    43   ar
    45    41    38    1
    46    40    39    2
    47    37    38    1
    48    45    43   ar
    49    38    39    1
    50    90    91    1
    51    95    97    1
    52    95    94    1
    53    91    94    1
    54    91    92    1
    55    75    73   ar
    56    94    96    1
    57    92    93    2
    58    74    73   ar
    59    66    64    1
    60    98    99    1
    61    73    72    1
    62   106   104   ar
    63   106   108   ar
    64   104   103   ar
    65    89    87    1
    66    88    86    1
    67    54    53    1
    68   109   108    1
    69    64    63    2
    70    64    65    1
    71    99   100    1
    72    99   102    1
    73    87    86    1
    74   108   107   ar
    75    63    62    1
    76    72    71    1
    77    86    83    1
    78   103   102    1
    79   103   105   ar
    80   100   101    2
    81    53    55    1
    82    53    52    1
    83    71    68    1
    84   107   105   ar
    85    83    84    1
    86    83    82    1
    87    62    61    1
    88    52    49    1
    89    84    85    2
    90    61    60    1
    91    68    69    1
    92    68    67    1
    93    69    70    2
    94    49    50    1
    95    49    48    1
    96    60    57    1
    97    50    56   am
    98    50    51    2
    99    56    57    1
   100    59    58    2
   101    57    58    1
