@<TRIPOS>MOLECULE
tmp/2f7dA00.pdb
 142 137 0 0 0
SMALL
GASTEIGER

@<TRIPOS>ATOM
      1  N          6.7700   12.2710   11.5150 N.3    19  GLN19      -0.1245
      2  CA         5.3630   12.6520   11.5900 C.3    19  GLN19       0.1566
      3  C          4.4100   11.5660   11.0900 C.2    19  GLN19       0.2260
      4  O          3.2090   11.6130   11.3600 O.2    19  GLN19      -0.2867
      5  CB         5.1380   13.9390   10.7900 C.3    19  GLN19       0.0367
      6  CG         5.3040   13.7680    9.2870 C.3    19  GLN19       0.0905
      7  CD         5.2160   15.0890    8.5500 C.2    19  GLN19       0.2608
      8  OE1        6.0830   15.9480    8.6920 O.2    19  GLN19      -0.2717
      9  NE2        4.1580   15.2640    7.7690 N.am   19  GLN19      -0.0878
     10  N         -0.4050   15.1420    8.2530 N.3    23  GLY23      -0.1225
     11  CA         0.1860   16.3900    7.7970 C.3    23  GLY23       0.1811
     12  C          0.4620   17.3400    8.9430 C.2    23  GLY23       0.2280
     13  O          0.0370   18.4940    8.9220 O.2    23  GLY23      -0.2866
     14  N          3.4570   18.4670    9.9010 N.3    25  CYS25      -0.1221
     15  CA         4.7600   19.1050    9.7770 C.3    25  CYS25       0.1808
     16  C          4.8120   20.4510   10.5110 C.2    25  CYS25       0.2601
     17  O          5.8260   20.7940   11.1140 O.2    25  CYS25      -0.2717
     18  CB         5.1050   19.3060    8.2970 C.3    25  CYS25       0.0970
     19  SG         3.9060   20.3190    7.3750 S.3    25  CYS25      -0.0800
     20  N          3.7160   21.2040   10.4610 N.am   26  TRP26      -0.1976
     21  CA         3.6530   22.5070   11.1150 C.3    26  TRP26       0.1640
     22  C          3.8090   22.3940   12.6270 C.2    26  TRP26       0.2290
     23  O          4.3730   23.2820   13.2660 O.2    26  TRP26      -0.2864
     24  CB         2.3300   23.2080   10.7890 C.3    26  TRP26       0.0576
     25  CG         1.1100   22.4460   11.2240 C.ar   26  TRP26       0.0006
     26  CD1        0.4300   21.4940   10.5090 C.ar   26  TRP26       0.0946
     27  CD2        0.4500   22.5420   12.4880 C.ar   26  TRP26       0.0152
     28  NE1       -0.6100   20.9940   11.2550 N.ar   26  TRP26      -0.2442
     29  CE2       -0.6220   21.6210   12.4750 C.ar   26  TRP26       0.0810
     30  CE3        0.6620   23.3240   13.6330 C.ar   26  TRP26       0.0012
     31  CZ2       -1.4800   21.4530   13.5700 C.ar   26  TRP26       0.0191
     32  CZ3       -0.1910   23.1570   14.7200 C.ar   26  TRP26       0.0001
     33  CH2       -1.2500   22.2290   14.6790 C.ar   26  TRP26       0.0015
     34  N         -7.4190   26.8110   15.1660 N.3    59  GLU59      -0.1231
     35  CA        -7.2800   27.6140   13.9640 C.3    59  GLU59       0.1699
     36  C         -6.5390   26.8700   12.8460 C.2    59  GLU59       0.2592
     37  O         -6.4230   27.3640   11.7230 O.2    59  GLU59      -0.2718
     38  CB        -6.5900   28.9500   14.2940 C.3    59  GLU59       0.0402
     39  CG        -7.3150   29.8360   15.3120 C.3    59  GLU59       0.1161
     40  CD        -7.0090   29.4550   16.7400 C.2    59  GLU59       0.3649
     41  OE1       -6.3060   28.4410   16.9860 O.co2  59  GLU59      -0.2457
     42  OE2       -7.5020   30.1870   17.6190 O.co2  59  GLU59      -0.2457
     43  N         -6.0300   25.6830   13.1670 N.am   60  ASN60      -0.1960
     44  CA        -5.3430   24.8590   12.1830 C.3    60  ASN60       0.1819
     45  C         -6.2120   23.6350   11.9060 C.2    60  ASN60       0.2621
     46  O         -7.2500   23.4390   12.5350 O.2    60  ASN60      -0.2715
     47  CB        -3.9530   24.4230   12.6790 C.3    60  ASN60       0.1195
     48  CG        -2.9090   25.5250   12.5330 C.2    60  ASN60       0.2630
     49  OD1       -3.0820   26.4560   11.7460 O.2    60  ASN60      -0.2716
     50  ND2       -1.8120   25.4090   13.2740 N.am   60  ASN60      -0.0877
     51  N         -5.7980   22.8210   10.9390 N.am   61  ASP61      -0.1971
     52  CA        -6.5710   21.6210   10.5990 C.3    61  ASP61       0.1709
     53  C         -5.9410   20.2800   10.9760 C.2    61  ASP61       0.2293
     54  O         -6.1420   19.2710   10.2920 O.2    61  ASP61      -0.2864
     55  CB        -6.9750   21.6330    9.1140 C.3    61  ASP61       0.1436
     56  CG        -8.0290   20.5770    8.7850 C.2    61  ASP61       0.3671
     57  OD1       -8.8870   20.2480    9.6340 O.co2  61  ASP61      -0.2456
     58  OD2       -7.9680   20.0590    7.6550 O.co2  61  ASP61      -0.2456
     59  N         -4.4770   17.7530    8.6770 N.3    64  GLY64      -0.1210
     60  CA        -4.7770   18.3140    7.3740 C.3    64  GLY64       0.1956
     61  C         -3.9340   19.5380    7.0610 C.2    64  GLY64       0.2612
     62  O         -4.0810   20.1350    5.9950 O.2    64  GLY64      -0.2717
     63  N         -3.0610   19.9240    7.9890 N.am   65  GLY65      -0.1942
     64  CA        -2.2050   21.0780    7.7650 C.3    65  GLY65       0.2014
     65  C         -2.4590   22.2400    8.7120 C.2    65  GLY65       0.2639
     66  O         -3.4370   22.2370    9.4640 O.2    65  GLY65      -0.2714
     67  N         -1.5800   23.2380    8.6730 N.am   66  GLY66      -0.1939
     68  CA        -1.7340   24.3870    9.5430 C.3    66  GLY66       0.2014
     69  C         -0.5560   25.3380    9.4610 C.2    66  GLY66       0.2639
     70  O          0.4270   25.0710    8.7610 O.2    66  GLY66      -0.2714
     71  N         -0.6550   26.4560   10.1760 N.am   67  TYR67      -0.1959
     72  CA         0.4100   27.4550   10.2000 C.3    67  TYR67       0.1771
     73  C          1.1380   27.4250   11.5440 C.2    67  TYR67       0.2619
     74  O          0.5360   27.1350   12.5780 O.2    67  TYR67      -0.2715
     75  CB        -0.1730   28.8540    9.9700 C.3    67  TYR67       0.0574
     76  CG        -0.6460   29.1070    8.5540 C.ar   67  TYR67      -0.0198
     77  CD1       -1.9720   29.4570    8.2900 C.ar   67  TYR67      -0.0009
     78  CD2        0.2380   29.0130    7.4760 C.ar   67  TYR67      -0.0009
     79  CE1       -2.4040   29.7090    6.9860 C.ar   67  TYR67       0.0417
     80  CE2       -0.1870   29.2640    6.1690 C.ar   67  TYR67       0.0417
     81  CZ        -1.5100   29.6090    5.9360 C.ar   67  TYR67       0.1957
     82  OH        -1.9440   29.8470    4.6530 O.3    67  TYR67      -0.2866
     83  N          2.4320   27.7290   11.5310 N.am   68  MET68      -0.1977
     84  CA         3.2140   27.7380   12.7630 C.3    68  MET68       0.1605
     85  C          2.8210   28.9190   13.6550 C.2    68  MET68       0.2287
     86  O          2.8150   28.8050   14.8800 O.2    68  MET68      -0.2864
     87  CB         4.7160   27.7980   12.4490 C.3    68  MET68       0.0413
     88  CG         5.2710   26.5400   11.7750 C.3    68  MET68       0.0598
     89  SD         4.9010   26.4420   10.0130 S.3    68  MET68      -0.1393
     90  CE         6.2700   27.3680    9.3400 C.3    68  MET68       0.0692
     91  N         -0.0780   30.1680   14.1510 N.3    70  ASN70      -0.1240
     92  CA        -1.2810   29.7940   14.8930 C.3    70  ASN70       0.1653
     93  C         -0.8850   28.9180   16.0770 C.2    70  ASN70       0.2266
     94  O         -1.4790   28.9940   17.1550 O.2    70  ASN70      -0.2867
     95  CB        -2.2550   29.0180   13.9940 C.3    70  ASN70       0.1155
     96  CG        -3.0090   29.9140   13.0210 C.2    70  ASN70       0.2627
     97  OD1       -3.6920   29.4280   12.1150 O.2    70  ASN70      -0.2716
     98  ND2       -2.8970   31.2220   13.2060 N.am   70  ASN70      -0.0877
     99  N          8.7630   27.5730    6.0850 N.3   134  ALA134     -0.1245
    100  CA         7.9030   26.8000    5.1950 C.3   134  ALA134      0.1562
    101  C          8.5920   26.7210    3.8300 C.2   134  ALA134      0.2260
    102  O          9.2410   27.6790    3.4020 O.2   134  ALA134     -0.2867
    103  CB         6.5390   27.4760    5.0680 C.3   134  ALA134      0.0290
    104  N          4.0940   26.8160   -1.0250 N.3   160  LEU160     -0.1231
    105  CA         4.5910   26.3470    0.2640 C.3   160  LEU160      0.1693
    106  C          3.6790   25.2040    0.7040 C.2   160  LEU160      0.2592
    107  O          2.4800   25.3990    0.8970 O.2   160  LEU160     -0.2718
    108  CB         4.5540   27.4820    1.2890 C.3   160  LEU160      0.0284
    109  CG         5.2770   28.7770    0.9110 C.3   160  LEU160      0.0019
    110  CD1        5.1570   29.7750    2.0560 C.3   160  LEU160      0.0001
    111  CD2        6.7350   28.4870    0.6060 C.3   160  LEU160      0.0001
    112  N          4.2450   24.0140    0.8730 N.am  161  ASN161     -0.1960
    113  CA         3.4380   22.8580    1.2410 C.3   161  ASN161      0.1819
    114  C          3.9960   22.0210    2.3890 C.2   161  ASN161      0.2621
    115  O          3.3980   21.0150    2.7750 O.2   161  ASN161     -0.2715
    116  CB         3.2750   21.9750    0.0060 C.3   161  ASN161      0.1195
    117  CG         4.5960   21.7160   -0.6840 C.2   161  ASN161      0.2630
    118  OD1        5.5150   21.1560   -0.0880 O.2   161  ASN161     -0.2716
    119  ND2        4.7070   22.1360   -1.9420 N.am  161  ASN161     -0.0877
    120  N          5.1280   22.4420    2.9400 N.am  162  HIS162     -0.1959
    121  CA         5.7610   21.6980    4.0160 C.3   162  HIS162      0.1787
    122  C          6.4210   22.6540    5.0000 C.2   162  HIS162      0.2620
    123  O          6.8140   23.7600    4.6370 O.2   162  HIS162     -0.2715
    124  CB         6.8040   20.7490    3.4130 C.3   162  HIS162      0.0785
    125  CG         7.3790   19.7600    4.3800 C.ar  162  HIS162      0.0821
    126  ND1        6.5840   18.9550    5.1830 N.ar  162  HIS162     -0.2267
    127  CD2        8.6520   19.4100    4.6420 C.ar  162  HIS162      0.1154
    128  CE1        7.3570   18.1600    5.8880 C.ar  162  HIS162      0.1986
    129  NE2        8.6170   18.4030    5.5890 N.ar  162  HIS162     -0.2212
    130  N          6.5330   22.2290    6.2510 N.am  163  ALA163     -0.1977
    131  CA         7.1610   23.0620    7.2660 C.3   163  ALA163      0.1597
    132  C          8.3170   22.3050    7.8940 C.2   163  ALA163      0.2287
    133  O          8.1970   21.1200    8.2090 O.2   163  ALA163     -0.2864
    134  CB         6.1460   23.4520    8.3330 C.3   163  ALA163      0.0319
    135  N          7.8940   32.3770    4.7190 N.3   209  LEU209     -0.1245
    136  CA         6.9890   32.2030    5.8430 C.3   209  LEU209      0.1561
    137  C          7.7450   31.7220    7.0720 C.2   209  LEU209      0.2260
    138  O          7.4390   30.6590    7.6140 O.2   209  LEU209     -0.2867
    139  CB         5.9080   31.1920    5.4560 C.3   209  LEU209      0.0270
    140  CG         4.5430   31.3060    6.1280 C.3   209  LEU209      0.0019
    141  CD1        3.9190   32.6530    5.7850 C.3   209  LEU209      0.0001
    142  CD2        3.6530   30.1690    5.6490 C.3   209  LEU209      0.0001
@<TRIPOS>BOND
     1   119   117   am
     2   104   105    1
     3   117   118    2
     4   117   116    1
     5   116   113    1
     6   105   106    1
     7   105   108    1
     8   111   109    1
     9   106   112   am
    10   106   107    2
    11   112   113    1
    12   109   108    1
    13   109   110    1
    14   113   114    1
    15   114   115    2
    16   114   120   am
    17   120   121    1
    18   102   101    2
    19   124   121    1
    20   124   125    1
    21   101   100    1
    22   121   122    1
    23   125   127   ar
    24   125   126   ar
    25   123   122    2
    26   127   129   ar
    27    82    81    1
    28   135   136    1
    29   122   130   am
    30   103   100    1
    31   126   128   ar
    32   100    99    1
    33   139   136    1
    34   139   140    1
    35   129   128   ar
    36   142   140    1
    37   141   140    1
    38   136   137    1
    39    81    80   ar
    40    81    79   ar
    41    62    61    2
    42    80    78   ar
    43   130   131    1
    44    79    77   ar
    45    61    60    1
    46    61    63   am
    47   137   138    2
    48   131   132    1
    49   131   134    1
    50    60    59    1
    51    19    18    1
    52    78    76   ar
    53    58    56   ar
    54    64    63    1
    55    64    65    1
    56     9     7   am
    57    11    10    1
    58    11    12    1
    59   132   133    2
    60    77    76   ar
    61    18    15    1
    62     7     8    2
    63     7     6    1
    64    76    75    1
    65    67    65   am
    66    67    68    1
    67    65    66    2
    68    70    69    2
    69    56    55    1
    70    56    57   ar
    71    13    12    2
    72    55    52    1
    73     6     5    1
    74    90    89    1
    75    69    68    1
    76    69    71   am
    77    15    14    1
    78    15    16    1
    79    75    72    1
    80    89    88    1
    81    71    72    1
    82    72    73    1
    83    54    53    2
    84    20    16   am
    85    20    21    1
    86    26    25   ar
    87    26    28   ar
    88    16    17    2
    89    52    51    1
    90    52    53    1
    91    24    21    1
    92    24    25    1
    93     5     2    1
    94    51    45   am
    95     3     4    2
    96     3     2    1
    97    21    22    1
    98    25    27   ar
    99    28    29   ar
   100     1     2    1
   101    83    73   am
   102    83    84    1
   103    73    74    2
   104    37    36    2
   105    49    48    2
   106    88    87    1
   107    45    44    1
   108    45    46    2
   109    97    96    2
   110    44    47    1
   111    44    43    1
   112    87    84    1
   113    29    27   ar
   114    29    31   ar
   115    27    30   ar
   116    48    47    1
   117    48    50   am
   118    22    23    2
   119    84    85    1
   120    36    43   am
   121    36    35    1
   122    96    98   am
   123    96    95    1
   124    31    33   ar
   125    30    32   ar
   126    85    86    2
   127    35    38    1
   128    35    34    1
   129    95    92    1
   130    91    92    1
   131    38    39    1
   132    33    32   ar
   133    92    93    1
   134    39    40    1
   135    93    94    2
   136    40    41   ar
   137    40    42   ar
