@<TRIPOS>MOLECULE
tmp/2f7eA00.pdb
 213 202 0 0 0
SMALL
GASTEIGER

@<TRIPOS>ATOM
      1  N          8.9590   15.1980    8.2250 N.3    35  LEU35      -0.1231
      2  CA         8.8280   13.7610    8.4680 C.3    35  LEU35       0.1693
      3  C         10.0280   12.9900    7.9400 C.2    35  LEU35       0.2593
      4  O         10.1750   11.7930    8.2030 O.2    35  LEU35      -0.2718
      5  CB         7.5750   13.2250    7.7700 C.3    35  LEU35       0.0284
      6  CG         6.2680   13.9780    8.0320 C.3    35  LEU35       0.0019
      7  CD1        5.1820   13.4630    7.0990 C.3    35  LEU35       0.0001
      8  CD2        5.8780   13.8020    9.4890 C.3    35  LEU35       0.0001
      9  N         10.8730   13.6710    7.1730 N.am   36  GLY36      -0.1942
     10  CA        12.0380   13.0080    6.6250 C.3    36  GLY36       0.2014
     11  C         12.8520   13.8920    5.7130 C.2    36  GLY36       0.2640
     12  O         12.3800   14.9270    5.2340 O.2    36  GLY36      -0.2714
     13  N         14.0830   13.4710    5.4520 N.am   37  THR37      -0.1936
     14  CA        14.9770   14.2420    4.6060 C.3    37  THR37       0.2028
     15  C         15.8080   13.3410    3.7090 C.2    37  THR37       0.2643
     16  O         16.0280   12.1630    4.0020 O.2    37  THR37      -0.2714
     17  CB        15.9290   15.1050    5.4540 C.3    37  THR37       0.1808
     18  OG1       16.5590   14.2800    6.4370 O.3    37  THR37      -0.2208
     19  CG2       15.1840   16.2190    6.1380 C.3    37  THR37       0.0379
     20  N         16.2630   13.9110    2.6020 N.am   38  GLY38      -0.1939
     21  CA        17.0600   13.1580    1.6500 C.3    38  GLY38       0.2014
     22  C         18.1730   14.0160    1.1010 C.2    38  GLY38       0.2640
     23  O         18.2390   15.2140    1.3900 O.2    38  GLY38      -0.2714
     24  N         19.0400   13.4100    0.2990 N.am   39  SER39      -0.1935
     25  CA        20.1690   14.1230   -0.2720 C.3    39  SER39       0.2055
     26  C         19.8210   15.4890   -0.8570 C.2    39  SER39       0.2643
     27  O         20.5480   16.4580   -0.6410 O.2    39  SER39      -0.2714
     28  CB        20.8390   13.2540   -1.3360 C.3    39  SER39       0.2130
     29  OG        19.8910   12.8210   -2.2930 O.3    39  SER39      -0.2179
     30  N         18.7060   15.5830   -1.5760 N.am   40  PHE40      -0.1959
     31  CA        18.3360   16.8530   -2.1900 C.3    40  PHE40       0.1771
     32  C         16.9350   17.3670   -1.8750 C.2    40  PHE40       0.2620
     33  O         16.4300   18.2620   -2.5560 O.2    40  PHE40      -0.2715
     34  CB        18.5330   16.7560   -3.7050 C.3    40  PHE40       0.0574
     35  CG        17.9780   15.4930   -4.3170 C.ar   40  PHE40      -0.0200
     36  CD1       16.6240   15.3690   -4.5860 C.ar   40  PHE40      -0.0042
     37  CD2       18.8240   14.4410   -4.6560 C.ar   40  PHE40      -0.0042
     38  CE1       16.1130   14.2200   -5.1890 C.ar   40  PHE40      -0.0003
     39  CE2       18.3200   13.2720   -5.2670 C.ar   40  PHE40      -0.0003
     40  CZ        16.9660   13.1680   -5.5310 C.ar   40  PHE40      -0.0000
     41  N         16.3170   16.8210   -0.8300 N.am   41  GLY41      -0.1940
     42  CA        14.9830   17.2660   -0.4800 C.3    41  GLY41       0.2014
     43  C         14.5200   16.8600    0.9020 C.2    41  GLY41       0.2639
     44  O         15.2620   16.2630    1.6800 O.2    41  GLY41      -0.2714
     45  N         13.2760   17.1950    1.2080 N.am   42  ARG42      -0.1963
     46  CA        12.6950   16.8580    2.4920 C.3    42  ARG42       0.1729
     47  C         11.1980   16.6540    2.3050 C.2    42  ARG42       0.2616
     48  O         10.6210   17.1070    1.3120 O.2    42  ARG42      -0.2715
     49  CB        12.9520   17.9880    3.4990 C.3    42  ARG42       0.0348
     50  CG        12.2350   19.2920    3.1710 C.3    42  ARG42       0.0492
     51  CD        12.8280   20.4960    3.9050 C.3    42  ARG42       0.2205
     52  NE        12.7730   20.3520    5.3520 N.pl3  42  ARG42      -0.0865
     53  CZ        13.8280   20.1110    6.1300 C.cat  42  ARG42       0.5346
     54  NH1       15.0370   19.9910    5.6030 N.pl3  42  ARG42       0.1354
     55  NH2       13.6680   19.9810    7.4380 N.pl3  42  ARG42       0.1354
     56  N         10.5840   15.9590    3.2520 N.am   43  VAL43      -0.1977
     57  CA         9.1510   15.7180    3.2250 C.3    43  VAL43       0.1596
     58  C          8.5340   16.2650    4.5200 C.2    43  VAL43       0.2287
     59  O          8.9990   15.9460    5.6170 O.2    43  VAL43      -0.2864
     60  CB         8.8370   14.2130    3.1060 C.3    43  VAL43       0.0276
     61  CG1        7.3700   13.9570    3.4730 C.3    43  VAL43       0.0022
     62  CG2        9.1010   13.7440    1.6600 C.3    43  VAL43       0.0022
     63  N          1.6190   14.7210    2.7400 N.3    56  ALA56      -0.1245
     64  CA         3.0520   14.6480    2.9670 C.3    56  ALA56       0.1562
     65  C          3.6320   15.3380    1.7490 C.2    56  ALA56       0.2260
     66  O          3.5990   14.7870    0.6380 O.2    56  ALA56      -0.2867
     67  CB         3.5080   13.2030    3.0230 C.3    56  ALA56       0.0290
     68  N          6.6170   16.6410   -0.4860 N.3    58  LYS58      -0.1245
     69  CA         8.0250   16.3860   -0.7700 C.3    58  LYS58       0.1561
     70  C          8.5700   17.6060   -1.5000 C.2    58  LYS58       0.2260
     71  O          8.0990   17.9520   -2.5900 O.2    58  LYS58      -0.2867
     72  CB         8.1520   15.1420   -1.6500 C.3    58  LYS58       0.0271
     73  CG         9.5670   14.6570   -1.9210 C.3    58  LYS58       0.0035
     74  CD         9.4720   13.3030   -2.6340 C.3    58  LYS58       0.0206
     75  CE        10.8150   12.8010   -3.1220 C.3    58  LYS58       0.1093
     76  NZ        10.6490   11.4910   -3.8040 N.3    58  LYS58      -0.1314
     77  N         11.7540   19.3120   -3.2780 N.3    60  LEU60      -0.1245
     78  CA        13.0400   19.0470   -3.9170 C.3    60  LEU60       0.1561
     79  C         13.6990   20.3540   -4.3300 C.2    60  LEU60       0.2260
     80  O         13.0540   21.2130   -4.9330 O.2    60  LEU60      -0.2867
     81  CB        12.8360   18.1620   -5.1520 C.3    60  LEU60       0.0270
     82  CG        12.8620   16.6530   -4.8800 C.3    60  LEU60       0.0019
     83  CD1       12.1110   16.3390   -3.5930 C.3    60  LEU60       0.0001
     84  CD2       12.2810   15.8870   -6.0640 C.3    60  LEU60       0.0001
     85  N         10.1650   10.2170  -11.6360 N.3    77  GLU77      -0.1245
     86  CA         9.3240   10.0620  -10.4550 C.3    77  GLU77       0.1567
     87  C          7.9610   10.7150  -10.5600 C.2    77  GLU77       0.2260
     88  O          6.9610   10.0520  -10.3790 O.2    77  GLU77      -0.2867
     89  CB        10.0300   10.5670   -9.1920 C.3    77  GLU77       0.0388
     90  CG         9.1540   10.3780   -7.9470 C.3    77  GLU77       0.1160
     91  CD         9.8460   10.7100   -6.6380 C.2    77  GLU77       0.3649
     92  OE1       10.6980   11.6270   -6.6200 O.co2  77  GLU77      -0.2457
     93  OE2        9.5140   10.0620   -5.6170 O.co2  77  GLU77      -0.2457
     94  N          1.5720    4.9190   -2.3990 N.3    90  VAL90      -0.1245
     95  CA         1.0400    6.1570   -1.8510 C.3    90  VAL90       0.1561
     96  C          0.6850    7.0530   -3.0340 C.2    90  VAL90       0.2260
     97  O          1.4420    7.1400   -3.9940 O.2    90  VAL90      -0.2867
     98  CB         2.0630    6.8790   -0.9520 C.3    90  VAL90       0.0252
     99  CG1        2.4280    5.9980    0.2350 C.3    90  VAL90       0.0019
    100  CG2        3.3000    7.2430   -1.7590 C.3    90  VAL90       0.0019
    101  N          1.8750   14.0860   -1.5520 N.3   106  MET106     -0.1230
    102  CA         1.2990   12.7530   -1.4530 C.3   106  MET106      0.1702
    103  C          0.3560   12.6680   -0.2780 C.2   106  MET106      0.2592
    104  O          0.3380   13.5380    0.5920 O.2   106  MET106     -0.2718
    105  CB         2.3800   11.6870   -1.2350 C.3   106  MET106      0.0401
    106  CG         2.7720   10.8910   -2.4770 C.3   106  MET106      0.0596
    107  SD         3.9380   11.8460   -3.4060 S.3   106  MET106     -0.1393
    108  CE         5.1800   12.0410   -2.1050 C.3   106  MET106      0.0692
    109  N         -0.4090   11.5860   -0.2630 N.am  107  GLU107     -0.1966
    110  CA        -1.3410   11.3190    0.8050 C.3   107  GLU107      0.1733
    111  C         -0.4980   11.0000    2.0430 C.2   107  GLU107      0.2616
    112  O          0.5140   10.2900    1.9590 O.2   107  GLU107     -0.2715
    113  CB        -2.2160   10.1290    0.4270 C.3   107  GLU107      0.0429
    114  CG        -3.4330    9.9400    1.2940 C.3   107  GLU107      0.1163
    115  CD        -4.4700    9.0640    0.6230 C.2   107  GLU107      0.3649
    116  OE1       -4.1540    7.8940    0.3210 O.co2 107  GLU107     -0.2457
    117  OE2       -5.6010    9.5510    0.3880 O.co2 107  GLU107     -0.2457
    118  N         -0.9080   11.5440    3.1820 N.am  108  TYR108     -0.1960
    119  CA        -0.1960   11.3250    4.4350 C.3   108  TYR108      0.1771
    120  C         -0.5720    9.9880    5.0630 C.2   108  TYR108      0.2619
    121  O         -1.7420    9.6210    5.1190 O.2   108  TYR108     -0.2715
    122  CB        -0.4950   12.4720    5.4050 C.3   108  TYR108      0.0574
    123  CG         0.1340   12.3120    6.7680 C.ar  108  TYR108     -0.0198
    124  CD1        1.5070   12.1520    6.9030 C.ar  108  TYR108     -0.0009
    125  CD2       -0.6480   12.3240    7.9280 C.ar  108  TYR108     -0.0009
    126  CE1        2.0920   12.0100    8.1540 C.ar  108  TYR108      0.0417
    127  CE2       -0.0650   12.1810    9.1930 C.ar  108  TYR108      0.0417
    128  CZ         1.3010   12.0260    9.2940 C.ar  108  TYR108      0.1957
    129  OH         1.8950   11.9000   10.5240 O.3   108  TYR108     -0.2866
    130  N          0.4360    9.2470    5.5110 N.am  109  VAL109     -0.1977
    131  CA         0.2210    7.9600    6.1570 C.3   109  VAL109      0.1596
    132  C          0.7330    8.0990    7.6000 C.2   109  VAL109      0.2287
    133  O          1.9340    7.9800    7.8640 O.2   109  VAL109     -0.2864
    134  CB         0.9880    6.8340    5.4110 C.3   109  VAL109      0.0276
    135  CG1        0.7370    5.4970    6.0750 C.3   109  VAL109      0.0022
    136  CG2        0.5360    6.7780    3.9530 C.3   109  VAL109      0.0022
    137  N          6.8560    4.4250    9.3770 N.3   113  GLU113     -0.1245
    138  CA         7.6370    3.4580    8.6050 C.3   113  GLU113      0.1567
    139  C          7.7600    2.0520    9.1670 C.2   113  GLU113      0.2260
    140  O          7.8210    1.8530   10.3860 O.2   113  GLU113     -0.2867
    141  CB         9.0420    4.0120    8.3990 C.3   113  GLU113      0.0388
    142  CG         9.0610    5.4660    7.9730 C.3   113  GLU113      0.1160
    143  CD        10.4630    6.0330    8.0080 C.2   113  GLU113      0.3649
    144  OE1       11.3380    5.3920    8.6380 O.co2 113  GLU113     -0.2457
    145  OE2       10.6870    7.1090    7.4280 O.co2 113  GLU113     -0.2457
    146  N         14.1370    0.5270   -5.2690 N.3   152  ASP152     -0.1239
    147  CA        14.5280    1.0130   -3.9460 C.3   152  ASP152      0.1674
    148  C         13.6300    0.4670   -2.8540 C.2   152  ASP152      0.2266
    149  O         13.1870    1.1900   -1.9630 O.2   152  ASP152     -0.2867
    150  CB        14.5850    2.5390   -3.8860 C.3   152  ASP152      0.1410
    151  CG        15.5610    3.0350   -2.8130 C.2   152  ASP152      0.3668
    152  OD1       16.5490    2.2980   -2.4890 O.co2 152  ASP152     -0.2456
    153  OD2       15.3620    4.1530   -2.3030 O.co2 152  ASP152     -0.2456
    154  N         12.8030   -1.2680    0.4400 N.3   154  LYS154     -0.1245
    155  CA        13.4640   -1.3190    1.7420 C.3   154  LYS154      0.1561
    156  C         12.4690   -0.8620    2.8080 C.2   154  LYS154      0.2260
    157  O         11.5300   -0.1420    2.5050 O.2   154  LYS154     -0.2867
    158  CB        14.7060   -0.4150    1.7620 C.3   154  LYS154      0.0271
    159  CG        14.4720    1.0750    1.5420 C.3   154  LYS154      0.0035
    160  CD        15.8280    1.8010    1.6230 C.3   154  LYS154      0.0206
    161  CE        15.7660    3.2830    1.2740 C.3   154  LYS154      0.1093
    162  NZ        17.1580    3.8580    1.2150 N.3   154  LYS154     -0.1314
    163  N         12.5770    1.3930    4.9650 N.3   156  GLU156     -0.1231
    164  CA        12.5460    2.8470    5.0900 C.3   156  GLU156      0.1699
    165  C         11.5900    3.4660    4.0790 C.2   156  GLU156      0.2592
    166  O         11.1620    4.6050    4.2430 O.2   156  GLU156     -0.2718
    167  CB        13.9560    3.4300    4.8890 C.3   156  GLU156      0.0402
    168  CG        14.9550    3.0260    5.9750 C.3   156  GLU156      0.1161
    169  CD        15.7900    1.8160    5.5940 C.2   156  GLU156      0.3649
    170  OE1       15.2130    0.7970    5.1840 O.co2 156  GLU156     -0.2457
    171  OE2       17.0270    1.8800    5.7180 O.co2 156  GLU156     -0.2457
    172  N         11.2800    2.7080    3.0320 N.am  157  ASN157     -0.1974
    173  CA        10.3650    3.1600    1.9780 C.3   157  ASN157      0.1688
    174  C          8.9870    2.4880    2.0180 C.2   157  ASN157      0.2292
    175  O          8.2610    2.4860    1.0170 O.2   157  ASN157     -0.2864
    176  CB        10.9970    2.9360    0.5960 C.3   157  ASN157      0.1181
    177  CG        12.1070    3.9270    0.3010 C.2   157  ASN157      0.2629
    178  OD1       12.3110    4.8750    1.0580 O.2   157  ASN157     -0.2716
    179  ND2       12.8230    3.7220   -0.8100 N.am  157  ASN157     -0.0877
    180  N          5.4220    2.3280    4.4000 N.3   159  LEU159     -0.1245
    181  CA         4.6330    2.8870    5.4980 C.3   159  LEU159      0.1561
    182  C          3.4850    1.9320    5.8540 C.2   159  LEU159      0.2260
    183  O          3.1110    1.0790    5.0470 O.2   159  LEU159     -0.2867
    184  CB         4.0770    4.2610    5.1010 C.3   159  LEU159      0.0270
    185  CG         5.1430    5.3230    4.8010 C.3   159  LEU159      0.0019
    186  CD1        4.4920    6.6310    4.3870 C.3   159  LEU159      0.0001
    187  CD2        5.9950    5.5370    6.0400 C.3   159  LEU159      0.0001
    188  N          6.5690    4.0930   -0.8630 N.3   169  THR169     -0.1203
    189  CA         6.9360    5.4840   -1.0890 C.3   169  THR169      0.1994
    190  C          8.2740    5.5410   -1.8270 C.2   169  THR169      0.2617
    191  O          8.9380    4.5250   -2.0100 O.2   169  THR169     -0.2717
    192  CB         7.1080    6.2570    0.2480 C.3   169  THR169      0.1784
    193  OG1        8.1900    5.6830    0.9890 O.3   169  THR169     -0.2211
    194  CG2        5.8430    6.1920    1.0820 C.3   169  THR169      0.0376
    195  N          8.6560    6.7420   -2.2420 N.am  170  ASP170     -0.1973
    196  CA         9.9250    6.9830   -2.9120 C.3   170  ASP170      0.1709
    197  C         10.1070    6.3470   -4.2870 C.2   170  ASP170      0.2293
    198  O         10.6500    5.2520   -4.4080 O.2   170  ASP170     -0.2864
    199  CB        11.0850    6.5490   -2.0050 C.3   170  ASP170      0.1436
    200  CG        12.3890    7.2410   -2.3630 C.2   170  ASP170      0.3671
    201  OD1       12.4520    7.8360   -3.4560 O.co2 170  ASP170     -0.2456
    202  OD2       13.3450    7.1900   -1.5590 O.co2 170  ASP170     -0.2456
    203  N          6.4840    9.1680   13.7070 N.3   313  PHE313     -0.1241
    204  CA         7.6280    9.6030   12.9040 C.3   313  PHE313      0.1605
    205  C          8.6630   10.2480   13.8190 C.2   313  PHE313      0.2264
    206  O          8.3140   10.8210   14.8510 O.2   313  PHE313     -0.2867
    207  CB         7.1770   10.6060   11.8410 C.3   313  PHE313      0.0534
    208  CG         6.4440    9.9740   10.6920 C.ar  313  PHE313     -0.0203
    209  CD1        7.1390    9.5040    9.5800 C.ar  313  PHE313     -0.0042
    210  CD2        5.0650    9.8010   10.7390 C.ar  313  PHE313     -0.0042
    211  CE1        6.4710    8.8700    8.5370 C.ar  313  PHE313     -0.0003
    212  CE2        4.3890    9.1660    9.6960 C.ar  313  PHE313     -0.0003
    213  CZ         5.0950    8.7000    8.5980 C.ar  313  PHE313     -0.0000
@<TRIPOS>BOND
     1    85    86    1
     2    87    86    1
     3    87    88    2
     4    86    89    1
     5    89    90    1
     6    90    91    1
     7    91    92   ar
     8    91    93   ar
     9    84    82    1
    10    40    39   ar
    11    40    38   ar
    12   146   147    1
    13    39    37   ar
    14    38    36   ar
    15    81    82    1
    16    81    78    1
    17    80    79    2
    18    82    83    1
    19    37    35   ar
    20    36    35   ar
    21   198   197    2
    22    79    78    1
    23    35    34    1
    24   197   196    1
    25    97    96    2
    26   147   150    1
    27   147   148    1
    28    78    77    1
    29   150   151    1
    30    76    75    1
    31    34    31    1
    32   201   200   ar
    33   107   106    1
    34   107   108    1
    35    75    74    1
    36    96    95    1
    37   196   195    1
    38   196   199    1
    39   148   149    2
    40   151   152   ar
    41   151   153   ar
    42    74    73    1
    43    71    70    2
    44    33    32    2
    45   106   105    1
    46    94    95    1
    47   200   199    1
    48   200   202   ar
    49    29    28    1
    50   195   190   am
    51    31    32    1
    52    31    30    1
    53   191   190    2
    54    73    72    1
    55    32    41   am
    56    95    98    1
    57   190   189    1
    58   100    98    1
    59    72    69    1
    60    30    26   am
    61   101   102    1
    62    70    69    1
    63   102   105    1
    64   102   103    1
    65    28    25    1
    66   189   188    1
    67   189   192    1
    68    98    99    1
    69    26    27    2
    70    26    25    1
    71    41    42    1
    72   179   177   am
    73    69    68    1
    74    42    43    1
    75   103   109   am
    76   103   104    2
    77    25    24    1
    78   109   110    1
    79   192   193    1
    80   192   194    1
    81    24    22   am
    82   177   176    1
    83   177   178    2
    84   116   115   ar
    85   117   115   ar
    86   113   110    1
    87   113   114    1
    88   154   155    1
    89   176   173    1
    90   115   114    1
    91    66    65    2
    92   110   111    1
    93    43    45   am
    94    43    44    2
    95   175   174    2
    96    22    23    2
    97    22    21    1
    98    45    46    1
    99   162   161    1
   100   161   160    1
   101    48    47    2
   102   159   160    1
   103   159   158    1
   104    21    20    1
   105    62    60    1
   106   155   158    1
   107   155   156    1
   108    65    64    1
   109   112   111    2
   110   173   174    1
   111   173   172    1
   112   111   118   am
   113    47    46    1
   114    47    56   am
   115    46    49    1
   116   157   156    2
   117    20    15   am
   118    63    64    1
   119    64    67    1
   120   172   165   am
   121    60    57    1
   122    60    61    1
   123    50    49    1
   124    50    51    1
   125   118   119    1
   126    57    56    1
   127    57    58    1
   128    15    16    2
   129    15    14    1
   130    51    52    1
   131   136   134    1
   132   165   166    2
   133   165   164    1
   134   186   185    1
   135   180   181    1
   136   119   120    1
   137   119   122    1
   138    58    59    2
   139    14    13    1
   140    14    17    1
   141   185   184    1
   142   185   187    1
   143   167   164    1
   144   167   168    1
   145   163   164    1
   146   183   182    2
   147   120   121    2
   148   120   130   am
   149   184   181    1
   150   170   169   ar
   151    12    11    2
   152    52    53    2
   153   122   123    1
   154   134   135    1
   155   134   131    1
   156    13    11   am
   157    17    19    1
   158    17    18    1
   159   181   182    1
   160   130   131    1
   161   169   171   ar
   162   169   168    1
   163    54    53    1
   164    11    10    1
   165    53    55    1
   166   131   132    1
   167    10     9    1
   168   123   124   ar
   169   123   125   ar
   170   124   126   ar
   171     7     6    1
   172     9     3   am
   173   145   143   ar
   174   132   133    2
   175     5     6    1
   176     5     2    1
   177   125   127   ar
   178     3     4    2
   179     3     2    1
   180   142   143    1
   181   142   141    1
   182   143   144   ar
   183     6     8    1
   184   126   128   ar
   185     1     2    1
   186   141   138    1
   187   211   213   ar
   188   211   209   ar
   189   213   212   ar
   190   138   139    1
   191   138   137    1
   192   139   140    2
   193   127   128   ar
   194   128   129    1
   195   209   208   ar
   196   212   210   ar
   197   208   210   ar
   198   208   207    1
   199   207   204    1
   200   204   203    1
   201   204   205    1
   202   205   206    2
