@<TRIPOS>MOLECULE
tmp/2f7fA00.pdb
 82 78 0 0 0
SMALL
GASTEIGER

@<TRIPOS>ATOM
      1  N         24.5530   64.9190   54.8720 N.3   157  PHE157     -0.1241
      2  CA        25.2830   66.1450   54.5040 C.3   157  PHE157      0.1605
      3  C         26.7710   65.8890   54.6560 C.2   157  PHE157      0.2264
      4  O         27.5630   66.8310   54.7430 O.2   157  PHE157     -0.2867
      5  CB        24.8910   67.3300   55.4180 C.3   157  PHE157      0.0534
      6  CG        23.6790   68.1110   54.9520 C.ar  157  PHE157     -0.0203
      7  CD1       22.9110   67.6830   53.8660 C.ar  157  PHE157     -0.0042
      8  CD2       23.2920   69.2700   55.6240 C.ar  157  PHE157     -0.0042
      9  CE1       21.7980   68.3920   53.4420 C.ar  157  PHE157     -0.0003
     10  CE2       22.1790   69.9900   55.2070 C.ar  157  PHE157     -0.0003
     11  CZ        21.4310   69.5490   54.1120 C.ar  157  PHE157     -0.0000
     12  N         31.8090   65.8480   52.5950 N.3   160  ARG160     -0.1231
     13  CA        33.0840   66.4720   52.8800 C.3   160  ARG160      0.1694
     14  C         33.8770   65.7100   53.9330 C.2   160  ARG160      0.2591
     15  O         35.0930   65.8470   53.9930 O.2   160  ARG160     -0.2718
     16  CB        32.9020   67.9330   53.2940 C.3   160  ARG160      0.0321
     17  CG        32.1850   68.1530   54.5910 C.3   160  ARG160      0.0489
     18  CD        31.9600   69.6330   54.8460 C.3   160  ARG160      0.2205
     19  NE        31.0410   70.1640   53.8440 N.pl3 160  ARG160     -0.0865
     20  CZ        30.6870   71.4400   53.7390 C.cat 160  ARG160      0.5346
     21  NH1       31.1690   72.3370   54.5950 N.pl3 160  ARG160      0.1354
     22  NH2       29.8470   71.8210   52.7780 N.pl3 160  ARG160      0.1354
     23  N         33.1720   64.9230   54.7400 N.am  161  ARG161     -0.1980
     24  CA        33.7460   64.1690   55.8560 C.3   161  ARG161      0.1597
     25  C         33.9260   62.7180   55.5280 C.2   161  ARG161      0.2287
     26  O         34.3700   61.9630   56.3890 O.2   161  ARG161     -0.2864
     27  CB        32.8620   64.2350   57.0980 C.3   161  ARG161      0.0334
     28  CG        32.1110   65.4970   57.2530 C.3   161  ARG161      0.0492
     29  CD        32.9690   66.5680   57.8620 C.3   161  ARG161      0.2205
     30  NE        32.0900   67.6450   58.3420 N.pl3 161  ARG161     -0.0865
     31  CZ        32.4670   68.9110   58.4940 C.cat 161  ARG161      0.5346
     32  NH1       33.7010   69.2730   58.1840 N.pl3 161  ARG161      0.1354
     33  NH2       31.5920   69.8170   58.9370 N.pl3 161  ARG161      0.1354
     34  N         23.0370   65.8500   50.2530 N.3   184  SER184     -0.1217
     35  CA        23.6220   67.0810   49.6900 C.3   184  SER184      0.1889
     36  C         24.3810   66.7960   48.4000 C.2   184  SER184      0.2288
     37  O         24.6300   67.7120   47.5890 O.2   184  SER184     -0.2866
     38  CB        24.5500   67.7690   50.6940 C.3   184  SER184      0.2089
     39  OG        25.6110   66.8980   51.0450 O.3   184  SER184     -0.2183
     40  N         19.8230   71.4180   50.0310 N.3   198  GLY198     -0.1210
     41  CA        20.8820   72.3360   50.4380 C.3   198  GLY198      0.1956
     42  C         20.3110   73.5770   51.0900 C.2   198  GLY198      0.2613
     43  O         19.0830   73.7810   51.1030 O.2   198  GLY198     -0.2717
     44  N         21.1810   74.3970   51.6680 N.am  199  THR199     -0.1938
     45  CA        20.7560   75.6830   52.2160 C.3   199  THR199      0.2028
     46  C         21.6910   76.7310   51.5850 C.2   199  THR199      0.2642
     47  O         21.7270   76.8270   50.3560 O.2   199  THR199     -0.2714
     48  CB        20.5770   75.6730   53.8090 C.3   199  THR199      0.1808
     49  OG1       21.8430   75.6720   54.4890 O.3   199  THR199     -0.2208
     50  CG2       19.7830   74.4320   54.2650 C.3   199  THR199      0.0379
     51  N         22.4950   77.4330   52.3740 N.am  200  HIS200     -0.1959
     52  CA        23.6990   78.0910   51.8490 C.3   200  HIS200      0.1787
     53  C         24.7620   77.9920   52.9280 C.2   200  HIS200      0.2620
     54  O         24.4580   77.4980   54.0140 O.2   200  HIS200     -0.2715
     55  CB        23.4220   79.5490   51.4410 C.3   200  HIS200      0.0785
     56  CG        23.0250   80.4480   52.5800 C.ar  200  HIS200      0.0821
     57  ND1       23.9460   81.1440   53.3370 N.ar  200  HIS200     -0.2267
     58  CD2       21.8070   80.7950   53.0640 C.ar  200  HIS200      0.1154
     59  CE1       23.3120   81.8660   54.2490 C.ar  200  HIS200      0.1986
     60  NE2       22.0140   81.6800   54.0970 N.ar  200  HIS200     -0.2212
     61  N         25.9960   78.4220   52.6170 N.am  201  ALA201     -0.1977
     62  CA        27.1270   78.3970   53.5650 C.3   201  ALA201      0.1597
     63  C         27.4190   79.7750   54.1580 C.2   201  ALA201      0.2287
     64  O         26.8480   80.7790   53.7180 O.2   201  ALA201     -0.2864
     65  CB        28.3800   77.8520   52.8910 C.3   201  ALA201      0.0319
     66  N         18.7800   77.9980   59.5090 N.3   259  ARG259     -0.1245
     67  CA        19.7580   76.9530   59.8670 C.3   259  ARG259      0.1563
     68  C         20.7110   77.4930   60.9260 C.2   259  ARG259      0.2260
     69  O         21.1370   78.6630   60.8730 O.2   259  ARG259     -0.2867
     70  CB        20.5400   76.4830   58.6330 C.3   259  ARG259      0.0307
     71  CG        21.4560   75.2490   58.8650 C.3   259  ARG259      0.0489
     72  CD        22.2500   74.8880   57.5780 C.3   259  ARG259      0.2205
     73  NE        23.6080   74.4920   57.9360 N.pl3 259  ARG259     -0.0865
     74  CZ        24.7120   74.8310   57.2870 C.cat 259  ARG259      0.5346
     75  NH1       24.6750   75.5670   56.1790 N.pl3 259  ARG259      0.1354
     76  NH2       25.8760   74.4040   57.7480 N.pl3 259  ARG259      0.1354
     77  N         22.5850   71.3000   62.2540 N.3   289  SER289     -0.1217
     78  CA        23.5790   70.6110   61.4440 C.3   289  SER289      0.1889
     79  C         24.8370   70.2550   62.1850 C.2   289  SER289      0.2288
     80  O         25.6680   69.5130   61.6260 O.2   289  SER289     -0.2866
     81  CB        23.9420   71.4160   60.1750 C.3   289  SER289      0.2089
     82  OG        24.0010   72.8180   60.4220 O.3   289  SER289     -0.2183
@<TRIPOS>BOND
     1    37    36    2
     2    36    35    1
     3    35    34    1
     4    35    38    1
     5    40    41    1
     6    47    46    2
     7    41    42    1
     8    38    39    1
     9    42    43    2
    10    42    44   am
    11    55    52    1
    12    55    56    1
    13    46    45    1
    14    46    51   am
    15    44    45    1
    16    52    51    1
    17    52    53    1
    18    45    48    1
    19    56    58   ar
    20    56    57   ar
    21    12    13    1
    22    61    53   am
    23    61    62    1
    24    22    20    1
    25    13    16    1
    26    13    14    1
    27    65    62    1
    28    53    54    2
    29    58    60   ar
    30    16    17    1
    31    57    59   ar
    32     9     7   ar
    33     9    11   ar
    34    62    63    1
    35    64    63    2
    36    20    19    2
    37    20    21    1
    38    48    50    1
    39    48    49    1
    40    19    18    1
    41     7     6   ar
    42    14    15    2
    43    14    23   am
    44    60    59   ar
    45    11    10   ar
    46     2     3    1
    47     2     1    1
    48     2     5    1
    49    17    18    1
    50     3     4    2
    51    23    24    1
    52     6     5    1
    53     6     8   ar
    54    10     8   ar
    55    25    24    1
    56    25    26    2
    57    24    27    1
    58    75    74    1
    59    27    28    1
    60    28    29    1
    61    74    76    1
    62    74    73    2
    63    72    73    1
    64    72    71    1
    65    29    30    1
    66    32    31    1
    67    30    31    2
    68    31    33    1
    69    70    71    1
    70    70    67    1
    71    66    67    1
    72    67    68    1
    73    81    82    1
    74    81    78    1
    75    69    68    2
    76    78    79    1
    77    78    77    1
    78    80    79    2
