@<TRIPOS>MOLECULE
tmp/2f7iA00.pdb
 69 63 0 0 0
SMALL
GASTEIGER

@<TRIPOS>ATOM
      1  N         22.6090   77.4790    2.8590 N.3     6  LYS6       -0.1245
      2  CA        23.6120   78.5500    2.7690 C.3     6  LYS6        0.1561
      3  C         24.2610   78.7290    4.1190 C.2     6  LYS6        0.2260
      4  O         23.5620   78.7930    5.1260 O.2     6  LYS6       -0.2867
      5  CB        22.9980   79.8690    2.3150 C.3     6  LYS6        0.0271
      6  CG        24.0260   80.9520    2.0080 C.3     6  LYS6        0.0035
      7  CD        23.4480   82.0780    1.1770 C.3     6  LYS6        0.0206
      8  CE        24.3680   83.2990    1.1690 C.3     6  LYS6        0.1093
      9  NZ        23.9270   84.3410    0.1860 N.3     6  LYS6       -0.1314
     10  N         27.2990   80.8430    6.4020 N.3     8  LEU8       -0.1245
     11  CA        28.1980   81.9930    6.5170 C.3     8  LEU8        0.1561
     12  C         29.0640   81.8560    7.7610 C.2     8  LEU8        0.2260
     13  O         28.6700   81.2190    8.7550 O.2     8  LEU8       -0.2867
     14  CB        27.3950   83.2910    6.6170 C.3     8  LEU8        0.0270
     15  CG        26.4860   83.6880    5.4540 C.3     8  LEU8        0.0019
     16  CD1       25.7350   84.9660    5.8250 C.3     8  LEU8        0.0001
     17  CD2       27.2690   83.8830    4.1970 C.3     8  LEU8        0.0001
     18  N         15.0390   77.3080    1.9220 N.3    97  THR97      -0.1218
     19  CA        16.4350   77.6540    2.1050 C.3    97  THR97       0.1862
     20  C         16.7300   77.5570    3.5880 C.2    97  THR97       0.2287
     21  O         16.0400   78.1720    4.3990 O.2    97  THR97      -0.2866
     22  CB        16.7460   79.0560    1.6110 C.3    97  THR97       0.1770
     23  OG1       16.4510   79.1450    0.2060 O.3    97  THR97      -0.2211
     24  CG2       18.2140   79.3820    1.8370 C.3    97  THR97       0.0375
     25  N         19.5320   78.4950    6.1700 N.3    99  ALA99      -0.1231
     26  CA        20.7070   79.3540    6.2820 C.3    99  ALA99       0.1694
     27  C         21.2890   79.1510    7.6620 C.2    99  ALA99       0.2592
     28  O         20.5400   78.9780    8.6300 O.2    99  ALA99      -0.2718
     29  CB        20.3320   80.7750    6.1120 C.3    99  ALA99       0.0304
     30  N         22.6130   79.1860    7.7630 N.am  100  ALA100     -0.1966
     31  CA        23.2660   79.0480    9.0580 C.3   100  ALA100      0.1728
     32  C         24.4030   80.0440    9.1270 C.2   100  ALA100      0.2616
     33  O         25.0630   80.2930    8.1180 O.2   100  ALA100     -0.2715
     34  CB        23.7600   77.6580    9.2640 C.3   100  ALA100      0.0334
     35  N         24.5770   80.6330   10.3100 N.am  101  LEU101     -0.1977
     36  CA        25.6440   81.5710   10.5790 C.3   101  LEU101      0.1596
     37  C         26.4570   80.9940   11.7280 C.2   101  LEU101      0.2287
     38  O         25.9180   80.7100   12.7970 O.2   101  LEU101     -0.2864
     39  CB        25.0550   82.9180   10.9420 C.3   101  LEU101      0.0297
     40  CG        26.0430   84.0010   11.3790 C.3   101  LEU101      0.0022
     41  CD1       26.9840   84.3780   10.2580 C.3   101  LEU101      0.0001
     42  CD2       25.2670   85.1980   11.8260 C.3   101  LEU101      0.0001
     43  N         23.5340   80.2340   14.4880 N.3   108  SER108     -0.1202
     44  CA        22.1710   80.6640   14.2770 C.3   108  SER108      0.2020
     45  C         21.6840   79.9900   13.0220 C.2   108  SER108      0.2619
     46  O         22.4630   79.7370   12.1110 O.2   108  SER108     -0.2717
     47  CB        22.1120   82.1850   14.1540 C.3   108  SER108      0.2103
     48  OG        22.5000   82.8130   15.3760 O.3   108  SER108     -0.2182
     49  N         20.4070   79.6630   12.9720 N.am  109  THR109     -0.1938
     50  CA        19.8550   79.1130   11.7510 C.3   109  THR109      0.2028
     51  C         18.4790   79.6850   11.5110 C.2   109  THR109      0.2642
     52  O         17.7250   79.9230   12.4520 O.2   109  THR109     -0.2714
     53  CB        19.8520   77.5760   11.7600 C.3   109  THR109      0.1808
     54  OG1       19.4310   77.0800   10.4880 O.3   109  THR109     -0.2208
     55  CG2       18.9570   76.9950   12.8330 C.3   109  THR109      0.0379
     56  N         18.1640   79.9170   10.2440 N.am  110  THR110     -0.1950
     57  CA        16.8320   80.3620    9.8800 C.3   110  THR110      0.1897
     58  C         16.4100   79.6240    8.6320 C.2   110  THR110      0.2313
     59  O         17.2330   79.0160    7.9510 O.2   110  THR110     -0.2863
     60  CB        16.7270   81.8990    9.7040 C.3   110  THR110      0.1794
     61  OG1       15.3450   82.3110    9.7560 O.3   110  THR110     -0.2208
     62  CG2       17.3420   82.3600    8.4080 C.3   110  THR110      0.0378
     63  N         13.9250   80.0740    5.1420 N.3   112  VAL112     -0.1245
     64  CA        13.1190   80.9050    4.2680 C.3   112  VAL112      0.1561
     65  C         12.3180   79.9460    3.4170 C.2   112  VAL112      0.2260
     66  O         12.8910   79.1460    2.6870 O.2   112  VAL112     -0.2867
     67  CB        13.9900   81.7830    3.3720 C.3   112  VAL112      0.0252
     68  CG1       13.1280   82.5850    2.4190 C.3   112  VAL112      0.0019
     69  CG2       14.8470   82.7020    4.2400 C.3   112  VAL112      0.0019
@<TRIPOS>BOND
     1     9     8    1
     2    23    22    1
     3     8     7    1
     4     7     6    1
     5    22    24    1
     6    22    19    1
     7    18    19    1
     8     6     5    1
     9    19    20    1
    10     5     2    1
    11    68    67    1
    12    66    65    2
    13     2     1    1
    14     2     3    1
    15    67    69    1
    16    67    64    1
    17    65    64    1
    18    20    21    2
    19     3     4    2
    20    17    15    1
    21    64    63    1
    22    15    16    1
    23    15    14    1
    24    29    26    1
    25    25    26    1
    26    26    27    1
    27    10    11    1
    28    11    14    1
    29    11    12    1
    30    27    30   am
    31    27    28    2
    32    12    13    2
    33    30    31    1
    34    59    58    2
    35    33    32    2
    36    62    60    1
    37    58    57    1
    38    31    32    1
    39    31    34    1
    40    32    35   am
    41    60    61    1
    42    60    57    1
    43    57    56    1
    44    56    51   am
    45    41    40    1
    46    35    36    1
    47    54    53    1
    48    36    39    1
    49    36    37    1
    50    39    40    1
    51    40    42    1
    52    51    50    1
    53    51    52    2
    54    37    38    2
    55    50    53    1
    56    50    49    1
    57    53    55    1
    58    46    45    2
    59    49    45   am
    60    45    44    1
    61    47    44    1
    62    47    48    1
    63    44    43    1
