@<TRIPOS>MOLECULE
tmp/2f7sA00.pdb
 93 89 0 0 0
SMALL
GASTEIGER

@<TRIPOS>ATOM
      1  N         20.6950    3.9330  -20.0240 N.3    14  SER14      -0.1202
      2  CA        21.3650    2.8720  -20.8040 C.3    14  SER14       0.2020
      3  C         21.3470    1.5470  -20.0950 C.2    14  SER14       0.2619
      4  O         21.2760    1.4790  -18.8800 O.2    14  SER14      -0.2717
      5  CB        22.7960    3.2240  -21.1580 C.3    14  SER14       0.2103
      6  OG        23.3300    4.0730  -20.1700 O.3    14  SER14      -0.2182
      7  N         21.3800    0.4800  -20.8750 N.am   15  GLY15      -0.1942
      8  CA        21.3650   -0.8620  -20.3260 C.3    15  GLY15       0.2014
      9  C         20.0100   -1.3280  -19.8360 C.2    15  GLY15       0.2639
     10  O         19.8490   -2.4880  -19.4730 O.2    15  GLY15      -0.2714
     11  N         19.0320   -0.4390  -19.8150 N.am   16  VAL16      -0.1963
     12  CA        17.6970   -0.7720  -19.3410 C.3    16  VAL16       0.1727
     13  C         16.9970   -1.8500  -20.1940 C.2    16  VAL16       0.2617
     14  O         16.2370   -2.6810  -19.6720 O.2    16  VAL16      -0.2715
     15  CB        16.8500    0.5140  -19.2930 C.3    16  VAL16       0.0290
     16  CG1       15.4100    0.2060  -19.4270 C.3    16  VAL16       0.0023
     17  CG2       17.1120    1.2880  -18.0050 C.3    16  VAL16       0.0023
     18  N         17.2160   -1.8310  -21.5140 N.am   17  GLY17      -0.1940
     19  CA        16.6360   -2.8610  -22.3740 C.3    17  GLY17       0.2014
     20  C         15.9700   -2.3490  -23.6250 C.2    17  GLY17       0.2639
     21  O         15.3350   -3.1250  -24.3410 O.2    17  GLY17      -0.2714
     22  N         16.1290   -1.0540  -23.9040 N.am   18  LYS18      -0.1963
     23  CA        15.3750   -0.3830  -24.9770 C.3    18  LYS18       0.1728
     24  C         15.5870   -1.0200  -26.3500 C.2    18  LYS18       0.2617
     25  O         14.6160   -1.3860  -27.0410 O.2    18  LYS18      -0.2715
     26  CB        15.7320    1.1080  -25.0560 C.3    18  LYS18       0.0311
     27  CG        15.4570    1.8900  -23.8080 C.3    18  LYS18       0.0038
     28  CD        15.8160    3.3840  -23.9620 C.3    18  LYS18       0.0206
     29  CE        17.2920    3.6240  -24.2720 C.3    18  LYS18       0.1093
     30  NZ        18.2880    3.0390  -23.3300 N.3    18  LYS18      -0.1314
     31  N         16.8570   -1.1490  -26.7440 N.am   19  THR19      -0.1937
     32  CA        17.1640   -1.5070  -28.1070 C.3    19  THR19       0.2028
     33  C         16.6420   -2.9090  -28.2970 C.2    19  THR19       0.2642
     34  O         16.0500   -3.1990  -29.3240 O.2    19  THR19      -0.2714
     35  CB        18.6740   -1.4450  -28.4160 C.3    19  THR19       0.1808
     36  OG1       19.2120   -0.1910  -27.9660 O.3    19  THR19      -0.2208
     37  CG2       18.9380   -1.5880  -29.8930 C.3    19  THR19       0.0379
     38  N         16.8480   -3.7590  -27.2920 N.am   20  THR20      -0.1950
     39  CA        16.4240   -5.1470  -27.3240 C.3    20  THR20       0.1897
     40  C         14.9240   -5.1710  -27.4840 C.2    20  THR20       0.2313
     41  O         14.4150   -5.7360  -28.4460 O.2    20  THR20      -0.2863
     42  CB        16.8510   -5.9130  -26.0220 C.3    20  THR20       0.1794
     43  OG1       18.2800   -5.8510  -25.8660 O.3    20  THR20      -0.2208
     44  CG2       16.3840   -7.3730  -26.0250 C.3    20  THR20       0.0378
     45  N         11.1340   -3.3860  -17.3890 N.3   122  ASN122     -0.1225
     46  CA        11.7330   -4.4350  -18.1620 C.3   122  ASN122      0.1785
     47  C         12.6400   -5.3480  -17.3100 C.2   122  ASN122      0.2597
     48  O         13.0360   -5.0020  -16.1810 O.2   122  ASN122     -0.2718
     49  CB        12.4940   -3.8300  -19.3430 C.3   122  ASN122      0.1169
     50  CG        12.9440   -4.8720  -20.3430 C.2   122  ASN122      0.2627
     51  OD1       12.1660   -5.7390  -20.7230 O.2   122  ASN122     -0.2716
     52  ND2       14.2110   -4.8060  -20.7560 N.am  122  ASN122     -0.0877
     53  N         12.9480   -6.5180  -17.8740 N.am  123  LYS123     -0.1980
     54  CA        13.7870   -7.5480  -17.2560 C.3   123  LYS123      0.1596
     55  C         13.0650   -8.3780  -16.1750 C.2   123  LYS123      0.2287
     56  O         13.6930   -8.9080  -15.2590 O.2   123  LYS123     -0.2864
     57  CB        15.1160   -6.9650  -16.7660 C.3   123  LYS123      0.0298
     58  CG        15.9980   -6.4820  -17.8970 C.3   123  LYS123      0.0038
     59  CD        17.4230   -6.2290  -17.4360 C.3   123  LYS123      0.0206
     60  CE        18.2000   -5.4210  -18.4630 C.3   123  LYS123      0.1093
     61  NZ        19.6240   -5.3310  -18.0780 N.3   123  LYS123     -0.1314
     62  N         12.2890  -11.2020  -16.2280 N.3   125  ASP125     -0.1225
     63  CA        12.7090  -12.5970  -16.3600 C.3   125  ASP125      0.1805
     64  C         13.8310  -12.9530  -15.4010 C.2   125  ASP125      0.2597
     65  O         14.2420  -14.1130  -15.3410 O.2   125  ASP125     -0.2718
     66  CB        13.1300  -12.9090  -17.8050 C.3   125  ASP125      0.1424
     67  CG        14.3020  -12.0570  -18.2790 C.2   125  ASP125      0.3668
     68  OD1       14.1150  -11.2480  -19.2090 O.co2 125  ASP125     -0.2456
     69  OD2       15.4110  -12.1830  -17.7280 O.co2 125  ASP125     -0.2456
     70  N         14.3230  -11.9500  -14.6670 N.am  126  LEU126     -0.1979
     71  CA        15.4020  -12.1230  -13.6810 C.3   126  LEU126      0.1596
     72  C         14.9440  -11.8330  -12.2330 C.2   126  LEU126      0.2287
     73  O         15.4370  -10.8770  -11.6140 O.2   126  LEU126     -0.2864
     74  CB        16.6060  -11.2330  -14.0360 C.3   126  LEU126      0.0297
     75  CG        17.3490  -11.3690  -15.3760 C.3   126  LEU126      0.0022
     76  CD1       18.3360  -10.2070  -15.5500 C.3   126  LEU126      0.0001
     77  CD2       18.0560  -12.7380  -15.5640 C.3   126  LEU126      0.0001
     78  N          9.4400   -8.7120  -20.1580 N.3   152  SER152     -0.1202
     79  CA        10.7700   -9.1860  -20.4760 C.3   152  SER152      0.2020
     80  C         11.0550   -9.0670  -21.9600 C.2   152  SER152      0.2619
     81  O         10.4370   -9.7460  -22.7780 O.2   152  SER152     -0.2717
     82  CB        11.0020  -10.6260  -20.0170 C.3   152  SER152      0.2103
     83  OG        12.2060  -11.1390  -20.6040 O.3   152  SER152     -0.2182
     84  N         12.0130   -8.2120  -22.2910 N.am  153  ALA153     -0.1965
     85  CA        12.4740   -8.0480  -23.6550 C.3   153  ALA153      0.1728
     86  C         13.1200   -9.3500  -24.1600 C.2   153  ALA153      0.2616
     87  O         13.0640   -9.6630  -25.3550 O.2   153  ALA153     -0.2715
     88  CB        13.4550   -6.8940  -23.7240 C.3   153  ALA153      0.0334
     89  N         13.7160  -10.1130  -23.2400 N.am  154  ALA154     -0.1977
     90  CA        14.4100  -11.3580  -23.5850 C.3   154  ALA154      0.1597
     91  C         13.4330  -12.4310  -24.0260 C.2   154  ALA154      0.2287
     92  O         13.7750  -13.3110  -24.7970 O.2   154  ALA154     -0.2864
     93  CB        15.2240  -11.8490  -22.4080 C.3   154  ALA154      0.0319
@<TRIPOS>BOND
     1    37    35    1
     2    34    33    2
     3    41    40    2
     4    35    32    1
     5    35    36    1
     6    33    32    1
     7    33    38   am
     8    32    31    1
     9    40    39    1
    10    39    38    1
    11    39    42    1
    12    25    24    2
    13    31    24   am
    14    24    23    1
    15    44    42    1
    16    42    43    1
    17    87    86    2
    18    26    23    1
    19    26    27    1
    20    23    22    1
    21    92    91    2
    22    21    20    2
    23    29    28    1
    24    29    30    1
    25    86    85    1
    26    86    89   am
    27    91    90    1
    28    28    27    1
    29    22    20   am
    30    88    85    1
    31    85    84    1
    32    20    19    1
    33    90    89    1
    34    90    93    1
    35    81    80    2
    36    19    18    1
    37    84    80   am
    38    80    79    1
    39    18    13   am
    40     5     2    1
    41     5     6    1
    42     7     8    1
    43     7     3   am
    44     2     3    1
    45     2     1    1
    46    52    50   am
    47    51    50    2
    48    83    82    1
    49    79    78    1
    50    79    82    1
    51    50    49    1
    52     8     9    1
    53    13    14    2
    54    13    12    1
    55     3     4    2
    56     9    11   am
    57     9    10    2
    58    11    12    1
    59    16    15    1
    60    49    46    1
    61    12    15    1
    62    15    17    1
    63    68    67   ar
    64    60    61    1
    65    60    59    1
    66    67    66    1
    67    67    69   ar
    68    46    45    1
    69    46    47    1
    70    58    59    1
    71    58    57    1
    72    53    47   am
    73    53    54    1
    74    66    63    1
    75    47    48    2
    76    54    57    1
    77    54    55    1
    78    63    62    1
    79    63    64    1
    80    55    56    2
    81    77    75    1
    82    76    75    1
    83    64    65    2
    84    64    70   am
    85    75    74    1
    86    70    71    1
    87    74    71    1
    88    71    72    1
    89    72    73    2
