@<TRIPOS>MOLECULE
tmp/2f7xA00.pdb
 217 207 0 0 0
SMALL
GASTEIGER

@<TRIPOS>ATOM
      1  N          9.2880   15.4930    8.2210 N.3    35  LEU35      -0.1231
      2  CA         9.1910   14.0490    8.4280 C.3    35  LEU35       0.1693
      3  C         10.4040   13.2690    7.9120 C.2    35  LEU35       0.2593
      4  O         10.4890   12.0470    8.0920 O.2    35  LEU35      -0.2718
      5  CB         7.9380   13.5100    7.7280 C.3    35  LEU35       0.0284
      6  CG         6.5560   14.0480    8.1150 C.3    35  LEU35       0.0019
      7  CD1        5.4950   13.5590    7.1150 C.3    35  LEU35       0.0001
      8  CD2        6.2240   13.5750    9.5130 C.3    35  LEU35       0.0001
      9  N         11.3270   13.9650    7.2620 N.am   36  GLY36      -0.1942
     10  CA        12.5020   13.2980    6.7250 C.3    36  GLY36       0.2014
     11  C         13.3410   14.2550    5.9070 C.2    36  GLY36       0.2640
     12  O         12.8330   15.2310    5.3420 O.2    36  GLY36      -0.2714
     13  N         14.6410   13.9760    5.8320 N.am   37  THR37      -0.1936
     14  CA        15.5450   14.8380    5.0920 C.3    37  THR37       0.2028
     15  C         16.5680   14.0180    4.3050 C.2    37  THR37       0.2643
     16  O         17.0540   13.0040    4.7840 O.2    37  THR37      -0.2714
     17  CB        16.2880   15.7690    6.0500 C.3    37  THR37       0.1808
     18  OG1       17.0070   14.9830    7.0190 O.3    37  THR37      -0.2208
     19  CG2       15.3090   16.6690    6.7840 C.3    37  THR37       0.0379
     20  N         16.8760   14.4690    3.0940 N.am   38  GLY38      -0.1939
     21  CA        17.8440   13.7840    2.2520 C.3    38  GLY38       0.2014
     22  C         18.8440   14.7810    1.6880 C.2    38  GLY38       0.2640
     23  O         18.8610   15.9380    2.1080 O.2    38  GLY38      -0.2714
     24  N         19.6660   14.3470    0.7340 N.am   39  SER39      -0.1935
     25  CA        20.6730   15.2160    0.1420 C.3    39  SER39       0.2055
     26  C         20.1460   16.3370   -0.7580 C.2    39  SER39       0.2643
     27  O         20.7570   17.4000   -0.8490 O.2    39  SER39      -0.2714
     28  CB        21.6960   14.3710   -0.6250 C.3    39  SER39       0.2130
     29  OG        21.0550   13.3470   -1.3700 O.3    39  SER39      -0.2179
     30  N         19.0150   16.1210   -1.4200 N.am   40  PHE40      -0.1959
     31  CA        18.4960   17.1600   -2.3000 C.3    40  PHE40       0.1771
     32  C         17.0540   17.5610   -2.0210 C.2    40  PHE40       0.2620
     33  O         16.4980   18.4060   -2.7210 O.2    40  PHE40      -0.2715
     34  CB        18.6620   16.7340   -3.7690 C.3    40  PHE40       0.0574
     35  CG        18.0150   15.4080   -4.1100 C.ar   40  PHE40      -0.0200
     36  CD1       16.6380   15.3070   -4.2760 C.ar   40  PHE40      -0.0042
     37  CD2       18.7950   14.2680   -4.3090 C.ar   40  PHE40      -0.0042
     38  CE1       16.0480   14.0980   -4.6370 C.ar   40  PHE40      -0.0003
     39  CE2       18.2130   13.0490   -4.6730 C.ar   40  PHE40      -0.0003
     40  CZ        16.8390   12.9630   -4.8380 C.ar   40  PHE40      -0.0000
     41  N         16.4640   16.9730   -0.9830 N.am   41  GLY41      -0.1940
     42  CA        15.0860   17.2930   -0.6550 C.3    41  GLY41       0.2014
     43  C         14.6710   16.8910    0.7460 C.2    41  GLY41       0.2639
     44  O         15.4550   16.3240    1.5070 O.2    41  GLY41      -0.2714
     45  N         13.4290   17.1950    1.0930 N.am   42  ARG42      -0.1963
     46  CA        12.9030   16.8590    2.4100 C.3    42  ARG42       0.1729
     47  C         11.4120   16.5620    2.2500 C.2    42  ARG42       0.2616
     48  O         10.8230   16.8890    1.2180 O.2    42  ARG42      -0.2715
     49  CB        13.0950   18.0430    3.3670 C.3    42  ARG42       0.0348
     50  CG        12.1370   19.2020    3.1010 C.3    42  ARG42       0.0492
     51  CD        12.6030   20.5380    3.6890 C.3    42  ARG42       0.2205
     52  NE        12.6580   20.5530    5.1470 N.pl3  42  ARG42      -0.0865
     53  CZ        13.6870   20.1140    5.8680 C.cat  42  ARG42       0.5346
     54  NH1       14.7630   19.6190    5.2670 N.pl3  42  ARG42       0.1354
     55  NH2       13.6480   20.1830    7.1950 N.pl3  42  ARG42       0.1354
     56  N         10.8160   15.9310    3.2600 N.am   43  VAL43      -0.1977
     57  CA         9.3900   15.6370    3.2340 C.3    43  VAL43       0.1596
     58  C          8.7800   16.2430    4.4990 C.2    43  VAL43       0.2287
     59  O          9.2680   16.0100    5.6030 O.2    43  VAL43      -0.2864
     60  CB         9.1050   14.1200    3.1980 C.3    43  VAL43       0.0276
     61  CG1        7.6180   13.8740    3.4220 C.3    43  VAL43       0.0022
     62  CG2        9.5120   13.5340    1.8220 C.3    43  VAL43       0.0022
     63  N          1.6560   14.6330    2.8780 N.3    56  ALA56      -0.1245
     64  CA         3.1030   14.5790    3.0100 C.3    56  ALA56       0.1562
     65  C          3.5700   15.2970    1.7520 C.2    56  ALA56       0.2260
     66  O          3.2120   14.9000    0.6280 O.2    56  ALA56      -0.2867
     67  CB         3.5990   13.1320    3.0100 C.3    56  ALA56       0.0290
     68  N          6.7790   16.3930   -0.4880 N.3    58  LYS58      -0.1245
     69  CA         8.1830   16.1380   -0.7890 C.3    58  LYS58       0.1561
     70  C          8.6840   17.3690   -1.5330 C.2    58  LYS58       0.2260
     71  O          8.1740   17.7010   -2.6000 O.2    58  LYS58      -0.2867
     72  CB         8.2990   14.8890   -1.6700 C.3    58  LYS58       0.0271
     73  CG         9.7030   14.3610   -1.9410 C.3    58  LYS58       0.0035
     74  CD         9.6150   13.0690   -2.7710 C.3    58  LYS58       0.0206
     75  CE        10.9920   12.5590   -3.2180 C.3    58  LYS58       0.1093
     76  NZ        10.9100   11.1920   -3.7650 N.3    58  LYS58      -0.1314
     77  N         11.9010   19.2770   -3.2990 N.3    60  LEU60      -0.1245
     78  CA        13.2390   19.0570   -3.8480 C.3    60  LEU60       0.1561
     79  C         13.8400   20.3700   -4.2970 C.2    60  LEU60       0.2260
     80  O         13.1690   21.1900   -4.9220 O.2    60  LEU60      -0.2867
     81  CB        13.1910   18.0920   -5.0380 C.3    60  LEU60       0.0270
     82  CG        12.4810   16.7510   -4.8260 C.3    60  LEU60       0.0019
     83  CD1       13.0390   16.0540   -3.5980 C.3    60  LEU60       0.0001
     84  CD2       10.9960   16.9800   -4.6430 C.3    60  LEU60       0.0001
     85  N         10.2100   10.1490  -11.6660 N.3    77  GLU77      -0.1245
     86  CA         9.4000    9.9660  -10.4620 C.3    77  GLU77       0.1567
     87  C          8.0180   10.5910  -10.5460 C.2    77  GLU77       0.2260
     88  O          7.0150    9.9050  -10.3330 O.2    77  GLU77      -0.2867
     89  CB        10.1190   10.5110   -9.2180 C.3    77  GLU77       0.0388
     90  CG         9.2310   10.4510   -7.9630 C.3    77  GLU77       0.1160
     91  CD         9.9520   10.8120   -6.6700 C.2    77  GLU77       0.3649
     92  OE1       10.9310   11.5980   -6.7170 O.co2  77  GLU77      -0.2457
     93  OE2        9.5250   10.3230   -5.6000 O.co2  77  GLU77      -0.2457
     94  N          1.6020    4.7780   -2.3680 N.3    90  VAL90      -0.1245
     95  CA         1.1280    6.0430   -1.8180 C.3    90  VAL90       0.1561
     96  C          0.6910    6.9330   -2.9710 C.2    90  VAL90       0.2260
     97  O          1.3810    7.0300   -3.9840 O.2    90  VAL90      -0.2867
     98  CB         2.2060    6.7450   -0.9780 C.3    90  VAL90       0.0252
     99  CG1        2.4770    5.9200    0.2760 C.3    90  VAL90       0.0019
    100  CG2        3.4590    6.9460   -1.7900 C.3    90  VAL90       0.0019
    101  N          1.6590   14.1190   -1.5190 N.3   106  MET106     -0.1230
    102  CA         1.1130   12.7730   -1.4400 C.3   106  MET106      0.1702
    103  C          0.2380   12.6030   -0.2120 C.2   106  MET106      0.2592
    104  O          0.2820   13.4040    0.7190 O.2   106  MET106     -0.2718
    105  CB         2.2470   11.7680   -1.3250 C.3   106  MET106      0.0401
    106  CG         3.3770   11.9790   -2.3030 C.3   106  MET106      0.0596
    107  SD         4.7940   11.1780   -1.5780 S.3   106  MET106     -0.1393
    108  CE         5.8190   12.5540   -1.3150 C.3   106  MET106      0.0692
    109  N         -0.5370   11.5290   -0.2210 N.am  107  GLU107     -0.1966
    110  CA        -1.4110   11.1970    0.8900 C.3   107  GLU107      0.1733
    111  C         -0.5220   10.8710    2.0880 C.2   107  GLU107      0.2616
    112  O          0.4910   10.1800    1.9430 O.2   107  GLU107     -0.2715
    113  CB        -2.2540    9.9860    0.5130 C.3   107  GLU107      0.0429
    114  CG        -3.4280    9.7180    1.4130 C.3   107  GLU107      0.1163
    115  CD        -4.4250    8.8130    0.7290 C.2   107  GLU107      0.3649
    116  OE1       -4.1050    7.6270    0.5270 O.co2 107  GLU107     -0.2457
    117  OE2       -5.5180    9.2990    0.3720 O.co2 107  GLU107     -0.2457
    118  N         -0.9030   11.3690    3.2610 N.am  108  TYR108     -0.1960
    119  CA        -0.1380   11.1430    4.4890 C.3   108  TYR108      0.1771
    120  C         -0.4350    9.7890    5.1390 C.2   108  TYR108      0.2619
    121  O         -1.5970    9.4000    5.2960 O.2   108  TYR108     -0.2715
    122  CB        -0.4180   12.2810    5.4820 C.3   108  TYR108      0.0574
    123  CG         0.2670   12.1350    6.8310 C.ar  108  TYR108     -0.0198
    124  CD1        1.6420   11.9280    6.9190 C.ar  108  TYR108     -0.0009
    125  CD2       -0.4610   12.2240    8.0200 C.ar  108  TYR108     -0.0009
    126  CE1        2.2790   11.8140    8.1550 C.ar  108  TYR108      0.0417
    127  CE2        0.1700   12.1090    9.2700 C.ar  108  TYR108      0.0417
    128  CZ         1.5360   11.9050    9.3270 C.ar  108  TYR108      0.1957
    129  OH         2.1730   11.7880   10.5450 O.3   108  TYR108     -0.2866
    130  N          0.6240    9.0690    5.5040 N.am  109  VAL109     -0.1977
    131  CA         0.4950    7.7650    6.1460 C.3   109  VAL109      0.1596
    132  C          1.0570    7.9330    7.5540 C.2   109  VAL109      0.2287
    133  O          2.2680    7.8070    7.7790 O.2   109  VAL109     -0.2864
    134  CB         1.3040    6.6800    5.4000 C.3   109  VAL109      0.0276
    135  CG1        1.0140    5.3130    5.9970 C.3   109  VAL109      0.0022
    136  CG2        0.9590    6.6910    3.9190 C.3   109  VAL109      0.0022
    137  N          7.0940    4.3900    9.1550 N.3   113  GLU113     -0.1245
    138  CA         7.8820    3.4440    8.3760 C.3   113  GLU113      0.1567
    139  C          7.9380    2.0510    8.9770 C.2   113  GLU113      0.2260
    140  O          8.0050    1.8890   10.2000 O.2   113  GLU113     -0.2867
    141  CB         9.3100    3.9830    8.2260 C.3   113  GLU113      0.0388
    142  CG         9.3740    5.3060    7.4900 C.3   113  GLU113      0.1160
    143  CD        10.7740    5.8890    7.4440 C.2   113  GLU113      0.3649
    144  OE1       11.7560    5.1500    7.7240 O.co2 113  GLU113     -0.2457
    145  OE2       10.8850    7.0780    7.1110 O.co2 113  GLU113     -0.2457
    146  N         13.1080   -1.2520    0.3900 N.3   154  LYS154     -0.1245
    147  CA        13.7090   -1.3380    1.7120 C.3   154  LYS154      0.1561
    148  C         12.6750   -0.8940    2.7520 C.2   154  LYS154      0.2260
    149  O         11.7730   -0.1280    2.4460 O.2   154  LYS154     -0.2867
    150  CB        14.9680   -0.4640    1.7900 C.3   154  LYS154      0.0271
    151  CG        14.7480    0.9890    1.4800 C.3   154  LYS154      0.0035
    152  CD        16.0810    1.7350    1.6150 C.3   154  LYS154      0.0206
    153  CE        15.9930    3.1470    1.0800 C.3   154  LYS154      0.1093
    154  NZ        17.3190    3.8660    1.1490 N.3   154  LYS154     -0.1314
    155  N         12.7170    1.2390    4.9370 N.3   156  GLU156     -0.1231
    156  CA        12.6650    2.6870    5.0730 C.3   156  GLU156      0.1699
    157  C         11.6740    3.3270    4.1080 C.2   156  GLU156      0.2592
    158  O         11.1890    4.4200    4.3550 O.2   156  GLU156     -0.2718
    159  CB        14.0500    3.3010    4.8430 C.3   156  GLU156      0.0402
    160  CG        15.0560    2.9430    5.9020 C.3   156  GLU156      0.1161
    161  CD        15.9090    1.7390    5.5350 C.2   156  GLU156      0.3649
    162  OE1       15.3510    0.7260    5.0820 O.co2 156  GLU156     -0.2457
    163  OE2       17.1420    1.8160    5.7220 O.co2 156  GLU156     -0.2457
    164  N         11.3750    2.6400    3.0130 N.am  157  ASN157     -0.1974
    165  CA        10.4540    3.1840    2.0120 C.3   157  ASN157      0.1688
    166  C          9.0720    2.5490    1.9890 C.2   157  ASN157      0.2292
    167  O          8.3550    2.6500    0.9970 O.2   157  ASN157     -0.2864
    168  CB        11.0850    3.0880    0.6230 C.3   157  ASN157      0.1181
    169  CG        12.2630    4.0240    0.4670 C.2   157  ASN157      0.2629
    170  OD1       12.4470    4.9200    1.2840 O.2   157  ASN157     -0.2716
    171  ND2       13.0630    3.8310   -0.5900 N.am  157  ASN157     -0.0877
    172  N          5.4950    2.3340    4.2260 N.3   159  LEU159     -0.1245
    173  CA         4.7400    2.9310    5.3160 C.3   159  LEU159      0.1561
    174  C          3.5950    1.9860    5.6950 C.2   159  LEU159      0.2260
    175  O          3.1490    1.1840    4.8740 O.2   159  LEU159     -0.2867
    176  CB         4.2050    4.2960    4.8780 C.3   159  LEU159      0.0270
    177  CG         5.3090    5.3430    4.6380 C.3   159  LEU159      0.0019
    178  CD1        4.7890    6.4510    3.7600 C.3   159  LEU159      0.0001
    179  CD2        5.7910    5.9030    5.9750 C.3   159  LEU159      0.0001
    180  N          6.6080    4.0150   -0.9710 N.3   169  THR169     -0.1203
    181  CA         6.8880    5.4030   -1.3120 C.3   169  THR169      0.1994
    182  C          8.2850    5.5330   -1.9210 C.2   169  THR169      0.2617
    183  O          8.9750    4.5390   -2.1210 O.2   169  THR169     -0.2717
    184  CB         6.7640    6.3390   -0.0660 C.3   169  THR169      0.1784
    185  OG1        6.8250    7.6540   -0.6230 O.3   169  THR169     -0.2211
    186  CG2        7.8520    6.2050    1.0030 C.3   169  THR169      0.0376
    187  N          8.6770    6.7670   -2.2210 N.am  170  ASP170     -0.1973
    188  CA         9.9750    7.0820   -2.8120 C.3   170  ASP170      0.1709
    189  C         10.2150    6.4420   -4.1740 C.2   170  ASP170      0.2293
    190  O         10.8930    5.4180   -4.2820 O.2   170  ASP170     -0.2864
    191  CB        11.1280    6.6940   -1.8850 C.3   170  ASP170      0.1436
    192  CG        12.4120    7.4290   -2.2380 C.2   170  ASP170      0.3671
    193  OD1       12.5610    7.8010   -3.4210 O.co2 170  ASP170     -0.2456
    194  OD2       13.2640    7.6360   -1.3490 O.co2 170  ASP170     -0.2456
    195  N          6.8200    9.0450   13.6660 N.3   313  PHE313     -0.1241
    196  CA         7.9300    9.5530   12.8630 C.3   313  PHE313      0.1605
    197  C          8.9760   10.2030   13.7700 C.2   313  PHE313      0.2264
    198  O          8.6320   10.8050   14.7910 O.2   313  PHE313     -0.2867
    199  CB         7.4190   10.5940   11.8560 C.3   313  PHE313      0.0534
    200  CG         6.7150   10.0000   10.6730 C.ar  313  PHE313     -0.0203
    201  CD1        7.4340    9.5750    9.5610 C.ar  313  PHE313     -0.0042
    202  CD2        5.3340    9.8280   10.6800 C.ar  313  PHE313     -0.0042
    203  CE1        6.7880    8.9820    8.4720 C.ar  313  PHE313     -0.0003
    204  CE2        4.6780    9.2360    9.5940 C.ar  313  PHE313     -0.0003
    205  CZ         5.4060    8.8140    8.4940 C.ar  313  PHE313     -0.0000
    206  N         13.1110   15.7850   13.2770 N.3   316  TYR316     -0.1241
    207  CA        14.1620   16.2690   12.3880 C.3   316  TYR316      0.1605
    208  C         14.2940   17.7700   12.5820 C.2   316  TYR316      0.2264
    209  O         13.3140   18.4430   12.9070 O.2   316  TYR316     -0.2867
    210  CB        13.7960   15.9670   10.9260 C.3   316  TYR316      0.0534
    211  CG        13.8910   14.5060   10.5270 C.ar  316  TYR316     -0.0201
    212  CD1       15.0890   13.9730   10.0670 C.ar  316  TYR316     -0.0009
    213  CD2       12.7930   13.6600   10.6280 C.ar  316  TYR316     -0.0009
    214  CE1       15.1990   12.6330    9.7130 C.ar  316  TYR316      0.0417
    215  CE2       12.8870   12.3040   10.2800 C.ar  316  TYR316      0.0417
    216  CZ        14.0980   11.8030    9.8200 C.ar  316  TYR316      0.1957
    217  OH        14.2130   10.4870    9.4420 O.3   316  TYR316     -0.2866
@<TRIPOS>BOND
     1    85    86    1
     2    87    86    1
     3    87    88    2
     4    86    89    1
     5    89    90    1
     6    90    91    1
     7    92    91   ar
     8    91    93   ar
     9    81    82    1
    10    81    78    1
    11    80    79    2
    12    40    39   ar
    13    40    38   ar
    14    82    84    1
    15    82    83    1
    16    39    37   ar
    17    38    36   ar
    18    37    35   ar
    19    79    78    1
    20   190   189    2
    21    36    35   ar
    22   189   188    1
    23    35    34    1
    24    97    96    2
    25    78    77    1
    26    34    31    1
    27    76    75    1
    28   193   192   ar
    29    75    74    1
    30    96    95    1
    31   188   187    1
    32   188   191    1
    33    74    73    1
    34    33    32    2
    35    71    70    2
    36    94    95    1
    37   106   107    1
    38   106   105    1
    39    31    32    1
    40    31    30    1
    41   192   191    1
    42   192   194   ar
    43   187   182   am
    44   183   182    2
    45    32    41   am
    46    73    72    1
    47   182   181    1
    48    95    98    1
    49   100    98    1
    50    72    69    1
    51   107   108    1
    52    70    69    1
    53   101   102    1
    54   102   105    1
    55   102   103    1
    56    30    26   am
    57    29    28    1
    58   181   180    1
    59   181   184    1
    60    41    42    1
    61    98    99    1
    62    27    26    2
    63    69    68    1
    64    26    25    1
    65    42    43    1
    66    28    25    1
    67   185   184    1
    68   171   169   am
    69   109   103   am
    70   109   110    1
    71   103   104    2
    72   184   186    1
    73    25    24    1
    74   117   115   ar
    75   146   147    1
    76   169   168    1
    77   169   170    2
    78   113   110    1
    79   113   114    1
    80   116   115   ar
    81   168   165    1
    82    66    65    2
    83   115   114    1
    84    24    22   am
    85    43    45   am
    86    43    44    2
    87   110   111    1
    88   167   166    2
    89   153   154    1
    90   153   152    1
    91    45    46    1
    92    48    47    2
    93   151   152    1
    94   151   150    1
    95    22    23    2
    96    22    21    1
    97   147   150    1
    98   147   148    1
    99    65    64    1
   100    62    60    1
   101   112   111    2
   102   166   165    1
   103   165   164    1
   104   111   118   am
   105    47    46    1
   106    47    56   am
   107    21    20    1
   108    46    49    1
   109   149   148    2
   110    63    64    1
   111    67    64    1
   112   164   157   am
   113    20    15   am
   114    50    49    1
   115    50    51    1
   116    60    57    1
   117    60    61    1
   118    57    56    1
   119    57    58    1
   120   118   119    1
   121    51    52    1
   122   178   177    1
   123   136   134    1
   124   157   158    2
   125   157   156    1
   126   172   173    1
   127    15    16    2
   128    15    14    1
   129   119   120    1
   130   119   122    1
   131    58    59    2
   132   177   176    1
   133   177   179    1
   134   159   156    1
   135   159   160    1
   136   175   174    2
   137   176   173    1
   138   155   156    1
   139   162   161   ar
   140    14    13    1
   141    14    17    1
   142   120   121    2
   143   120   130   am
   144    52    53    2
   145    54    53    1
   146   173   174    1
   147    12    11    2
   148   134   135    1
   149   134   131    1
   150   122   123    1
   151   130   131    1
   152   161   163   ar
   153   161   160    1
   154    13    11   am
   155    53    55    1
   156    11    10    1
   157    17    19    1
   158    17    18    1
   159   131   132    1
   160    10     9    1
   161   123   124   ar
   162   123   125   ar
   163   124   126   ar
   164   145   143   ar
   165     7     6    1
   166     9     3   am
   167   143   142    1
   168   143   144   ar
   169   142   141    1
   170   132   133    2
   171     5     6    1
   172     5     2    1
   173     3     4    2
   174     3     2    1
   175   125   127   ar
   176     6     8    1
   177   126   128   ar
   178     1     2    1
   179   141   138    1
   180   138   139    1
   181   138   137    1
   182   203   205   ar
   183   203   201   ar
   184   205   204   ar
   185   139   140    2
   186   127   128   ar
   187   128   129    1
   188   217   216    1
   189   201   200   ar
   190   204   202   ar
   191   214   216   ar
   192   214   212   ar
   193   216   215   ar
   194   212   211   ar
   195   215   213   ar
   196   211   213   ar
   197   211   210    1
   198   200   202   ar
   199   200   199    1
   200   210   207    1
   201   199   196    1
   202   207   208    1
   203   207   206    1
   204   208   209    2
   205   196   195    1
   206   196   197    1
   207   197   198    2
