@<TRIPOS>MOLECULE
tmp/2f7zA00.pdb
 205 195 0 0 0
SMALL
GASTEIGER

@<TRIPOS>ATOM
      1  N          8.6600   14.9090    8.2450 N.3    35  LEU35      -0.1231
      2  CA         8.6090   13.4690    8.4630 C.3    35  LEU35       0.1693
      3  C          9.8460   12.7220    7.9730 C.2    35  LEU35       0.2593
      4  O         10.0430   11.5390    8.2740 O.2    35  LEU35      -0.2718
      5  CB         7.3830   12.8910    7.7630 C.3    35  LEU35       0.0284
      6  CG         6.0750   13.6720    7.8350 C.3    35  LEU35       0.0019
      7  CD1        5.0120   12.9120    7.0540 C.3    35  LEU35       0.0001
      8  CD2        5.6520   13.8680    9.2750 C.3    35  LEU35       0.0001
      9  N         10.6750   13.4000    7.1980 N.am   36  GLY36      -0.1942
     10  CA        11.8610   12.7490    6.6740 C.3    36  GLY36       0.2014
     11  C         12.7380   13.7440    5.9550 C.2    36  GLY36       0.2640
     12  O         12.2600   14.7330    5.3800 O.2    36  GLY36      -0.2714
     13  N         14.0360   13.4760    5.9840 N.am   37  THR37      -0.1936
     14  CA        15.0110   14.3620    5.3620 C.3    37  THR37       0.2032
     15  C         16.1110   13.5910    4.6500 C.2    37  THR37       0.2682
     16  O         16.3390   12.4100    4.9340 O.2    37  THR37      -0.2710
     17  CB        15.6910   15.2150    6.3950 C.3    37  THR37       0.1808
     18  OG1       16.5610   16.1290    5.7340 O.3    37  THR37      -0.2208
     19  CG2       16.5090   14.3420    7.3220 C.3    37  THR37       0.0379
     20  N         16.8150   14.2660    3.7450 N.am   38  GLY38      -0.1715
     21  CA        17.8740   13.5790    3.0430 C.2    38  GLY38       0.1480
     22  C         18.6400   14.3460    1.9880 C.2    38  GLY38       0.2821
     23  O         18.6670   15.5810    1.9740 O.2    38  GLY38      -0.2669
     24  N         19.2780   13.5620    1.1150 N.am   39  SER39      -0.1901
     25  CA        20.0920   14.0250    0.0030 C.3    39  SER39       0.2058
     26  C         19.7870   15.4390   -0.4880 C.2    39  SER39       0.2643
     27  O         20.3750   16.4150   -0.0280 O.2    39  SER39      -0.2714
     28  CB        19.9370   13.0350   -1.1480 C.3    39  SER39       0.2130
     29  OG        20.7470   13.3900   -2.2500 O.3    39  SER39      -0.2179
     30  N         18.8450   15.5410   -1.4150 N.am   40  PHE40      -0.1959
     31  CA        18.4860   16.8230   -2.0040 C.3    40  PHE40       0.1774
     32  C         17.0980   17.3540   -1.6350 C.2    40  PHE40       0.2659
     33  O         16.6000   18.2840   -2.2720 O.2    40  PHE40      -0.2711
     34  CB        18.5970   16.6870   -3.5150 C.3    40  PHE40       0.0574
     35  CG        17.9530   15.4320   -4.0540 C.ar   40  PHE40      -0.0200
     36  CD1       16.5690   15.2550   -3.9890 C.ar   40  PHE40      -0.0042
     37  CD2       18.7260   14.4330   -4.6450 C.ar   40  PHE40      -0.0042
     38  CE1       15.9680   14.1140   -4.5020 C.ar   40  PHE40      -0.0003
     39  CE2       18.1270   13.2750   -5.1680 C.ar   40  PHE40      -0.0003
     40  CZ        16.7460   13.1210   -5.0940 C.ar   40  PHE40      -0.0000
     41  N         16.4780   16.7630   -0.6140 N.am   41  GLY41      -0.1716
     42  CA        15.1560   17.2000   -0.1960 C.2    41  GLY41       0.1480
     43  C         14.6970   16.7670    1.1930 C.2    41  GLY41       0.2820
     44  O         15.4550   16.1960    1.9820 O.2    41  GLY41      -0.2669
     45  N         13.4330   17.0460    1.4870 N.am   42  ARG42      -0.1929
     46  CA        12.8280   16.7140    2.7690 C.3    42  ARG42       0.1732
     47  C         11.3300   16.5330    2.5310 C.2    42  ARG42       0.2616
     48  O         10.7960   17.0020    1.5360 O.2    42  ARG42      -0.2715
     49  CB        13.0960   17.8460    3.7840 C.3    42  ARG42       0.0348
     50  CG        12.6270   19.2520    3.3620 C.3    42  ARG42       0.0492
     51  CD        13.2970   20.3660    4.1820 C.3    42  ARG42       0.2205
     52  NE        13.1240   20.1830    5.6280 N.pl3  42  ARG42      -0.0865
     53  CZ        14.1090   20.2130    6.5360 C.cat  42  ARG42       0.5346
     54  NH1       15.3680   20.4260    6.1710 N.pl3  42  ARG42       0.1354
     55  NH2       13.8360   20.0040    7.8200 N.pl3  42  ARG42       0.1354
     56  N         10.6490   15.8340    3.4220 N.am   43  VAL43      -0.1977
     57  CA         9.2240   15.6390    3.2450 C.3    43  VAL43       0.1596
     58  C          8.5070   16.1260    4.4810 C.2    43  VAL43       0.2287
     59  O          8.7990   15.6850    5.5970 O.2    43  VAL43      -0.2864
     60  CB         8.8820   14.1640    3.0190 C.3    43  VAL43       0.0276
     61  CG1        7.3800   13.9800    2.9850 C.3    43  VAL43       0.0022
     62  CG2        9.4900   13.6970    1.7180 C.3    43  VAL43       0.0022
     63  N          1.6400   14.5510    2.6750 N.3    56  ALA56      -0.1245
     64  CA         3.0640   14.6460    2.9120 C.3    56  ALA56       0.1562
     65  C          3.4810   15.4050    1.6720 C.2    56  ALA56       0.2260
     66  O          2.9450   15.1530    0.5880 O.2    56  ALA56      -0.2867
     67  CB         3.6980   13.3060    2.9250 C.3    56  ALA56       0.0290
     68  N          6.6780   16.1710   -0.5780 N.3    58  LYS58      -0.1245
     69  CA         8.0730   15.9780   -0.9220 C.3    58  LYS58       0.1561
     70  C          8.5770   17.2380   -1.5840 C.2    58  LYS58       0.2260
     71  O          8.0230   17.6790   -2.5740 O.2    58  LYS58      -0.2867
     72  CB         8.2270   14.8020   -1.8740 C.3    58  LYS58       0.0271
     73  CG         9.6500   14.2930   -1.9670 C.3    58  LYS58       0.0035
     74  CD         9.6850   12.9100   -2.5970 C.3    58  LYS58       0.0206
     75  CE        11.0930   12.3660   -2.6670 C.3    58  LYS58       0.1093
     76  NZ        11.0730   10.9490   -3.1010 N.3    58  LYS58      -0.1314
     77  N         11.7850   19.0340   -3.4170 N.3    60  LEU60      -0.1245
     78  CA        13.0720   18.8030   -4.0690 C.3    60  LEU60       0.1561
     79  C         13.7880   20.1030   -4.4440 C.2    60  LEU60       0.2260
     80  O         13.2390   20.9510   -5.1520 O.2    60  LEU60      -0.2867
     81  CB        12.8770   17.9500   -5.3320 C.3    60  LEU60       0.0270
     82  CG        12.2560   16.5440   -5.2530 C.3    60  LEU60       0.0019
     83  CD1       12.9030   15.7620   -4.1420 C.3    60  LEU60       0.0001
     84  CD2       10.7670   16.6350   -5.0100 C.3    60  LEU60       0.0001
     85  N         10.2410   10.1260  -11.5390 N.3    77  GLU77      -0.1245
     86  CA         9.4590   10.0400  -10.3120 C.3    77  GLU77       0.1567
     87  C          8.0790   10.6380  -10.4400 C.2    77  GLU77       0.2260
     88  O          7.0860    9.9780  -10.1220 O.2    77  GLU77      -0.2867
     89  CB        10.1680   10.7320   -9.1540 C.3    77  GLU77       0.0388
     90  CG         9.7100   10.2190   -7.7920 C.3    77  GLU77       0.1160
     91  CD        10.1550   11.0940   -6.6390 C.2    77  GLU77       0.3649
     92  OE1       11.2650   11.6600   -6.7040 O.co2  77  GLU77      -0.2457
     93  OE2        9.3990   11.2050   -5.6550 O.co2  77  GLU77      -0.2457
     94  N          1.2600    5.1730   -2.6590 N.3    90  VAL90      -0.1245
     95  CA         0.8220    6.4850   -2.2070 C.3    90  VAL90       0.1561
     96  C          0.2860    7.3150   -3.3650 C.2    90  VAL90       0.2260
     97  O          0.9470    7.4540   -4.3990 O.2    90  VAL90      -0.2867
     98  CB         1.9710    7.2770   -1.5580 C.3    90  VAL90       0.0252
     99  CG1        2.3740    6.6390   -0.2460 C.3    90  VAL90       0.0019
    100  CG2        3.1540    7.3280   -2.5030 C.3    90  VAL90       0.0019
    101  N          1.8490   14.2620   -1.6270 N.3   106  MET106     -0.1230
    102  CA         1.2940   12.9180   -1.5760 C.3   106  MET106      0.1702
    103  C          0.3040   12.7930   -0.4460 C.2   106  MET106      0.2592
    104  O          0.1950   13.6710    0.4020 O.2   106  MET106     -0.2718
    105  CB         2.3970   11.8760   -1.3680 C.3   106  MET106      0.0401
    106  CG         3.4160   11.8000   -2.4870 C.3   106  MET106      0.0596
    107  SD         4.8970   10.9350   -1.9250 S.3   106  MET106     -0.1393
    108  CE         5.5150   12.1320   -0.7580 C.3   106  MET106      0.0692
    109  N         -0.4100   11.6780   -0.4450 N.am  107  GLU107     -0.1966
    110  CA        -1.3920   11.3970    0.5820 C.3   107  GLU107      0.1733
    111  C         -0.6500   11.0790    1.8860 C.2   107  GLU107      0.2616
    112  O          0.3450   10.3600    1.8730 O.2   107  GLU107     -0.2715
    113  CB        -2.2300   10.2090    0.1310 C.3   107  GLU107      0.0429
    114  CG        -3.3860    9.8740    1.0150 C.3   107  GLU107      0.1163
    115  CD        -4.0840    8.6330    0.5360 C.2   107  GLU107      0.3649
    116  OE1       -3.3940    7.6010    0.3880 O.co2 107  GLU107     -0.2457
    117  OE2       -5.3110    8.6890    0.3010 O.co2 107  GLU107     -0.2457
    118  N         -1.1200   11.6160    3.0070 N.am  108  TYR108     -0.1960
    119  CA        -0.4590   11.3560    4.2850 C.3   108  TYR108      0.1771
    120  C         -0.7360    9.9460    4.8040 C.2   108  TYR108      0.2619
    121  O         -1.8720    9.4770    4.7760 O.2   108  TYR108     -0.2715
    122  CB        -0.9080   12.3750    5.3260 C.3   108  TYR108      0.0574
    123  CG        -0.3020   12.2000    6.7040 C.ar  108  TYR108     -0.0198
    124  CD1        1.0030   12.5890    6.9690 C.ar  108  TYR108     -0.0009
    125  CD2       -1.0640   11.7080    7.7630 C.ar  108  TYR108     -0.0009
    126  CE1        1.5300   12.5060    8.2610 C.ar  108  TYR108      0.0417
    127  CE2       -0.5440   11.6210    9.0550 C.ar  108  TYR108      0.0417
    128  CZ         0.7470   12.0250    9.2940 C.ar  108  TYR108      0.1957
    129  OH         1.2430   11.9800   10.5730 O.3   108  TYR108     -0.2866
    130  N          0.3150    9.2840    5.2830 N.am  109  VAL109     -0.1977
    131  CA         0.2350    7.9240    5.8160 C.3   109  VAL109      0.1596
    132  C          0.5440    7.9610    7.2960 C.2   109  VAL109      0.2287
    133  O          1.6680    7.6820    7.7000 O.2   109  VAL109     -0.2864
    134  CB         1.2660    7.0140    5.1540 C.3   109  VAL109      0.0276
    135  CG1        1.0800    5.5910    5.6300 C.3   109  VAL109      0.0022
    136  CG2        1.1280    7.0980    3.6520 C.3   109  VAL109      0.0022
    137  N          6.9580    4.7390    9.2360 N.3   113  GLU113     -0.1245
    138  CA         7.7760    3.8350    8.4440 C.3   113  GLU113      0.1567
    139  C          7.8030    2.4140    8.9760 C.2   113  GLU113      0.2260
    140  O          7.8030    2.2030   10.1820 O.2   113  GLU113     -0.2867
    141  CB         9.2000    4.4020    8.3630 C.3   113  GLU113      0.0388
    142  CG         9.2360    5.7400    7.6410 C.3   113  GLU113      0.1160
    143  CD        10.5620    6.4710    7.7180 C.2   113  GLU113      0.3649
    144  OE1       11.6010    5.8100    7.9170 O.co2 113  GLU113     -0.2457
    145  OE2       10.5590    7.7170    7.5580 O.co2 113  GLU113     -0.2457
    146  N         12.9540   -0.7740    0.3380 N.3   154  LYS154     -0.1245
    147  CA        13.6110   -0.8420    1.6430 C.3   154  LYS154      0.1561
    148  C         12.6270   -0.4320    2.7290 C.2   154  LYS154      0.2260
    149  O         11.7830    0.4290    2.5070 O.2   154  LYS154     -0.2867
    150  CB        14.8590    0.0650    1.7020 C.3   154  LYS154      0.0271
    151  CG        14.6220    1.5540    1.4920 C.3   154  LYS154      0.0035
    152  CD        15.9420    2.3120    1.5450 C.3   154  LYS154      0.0206
    153  CE        15.7870    3.7750    1.1220 C.3   154  LYS154      0.1093
    154  NZ        17.0500    4.5720    1.1970 N.3   154  LYS154     -0.1314
    155  N         12.7340    1.5290    5.0450 N.3   156  GLU156     -0.1231
    156  CA        12.6680    2.9710    5.1960 C.3   156  GLU156      0.1699
    157  C         11.7300    3.5780    4.1750 C.2   156  GLU156      0.2592
    158  O         11.4380    4.7730    4.2300 O.2   156  GLU156     -0.2718
    159  CB        14.0470    3.6070    5.0330 C.3   156  GLU156      0.0402
    160  CG        15.1090    3.0540    5.9530 C.3   156  GLU156      0.1161
    161  CD        15.7990    1.8550    5.3670 C.2   156  GLU156      0.3649
    162  OE1       15.1090    0.8560    5.0650 O.co2 156  GLU156     -0.2457
    163  OE2       17.0330    1.9230    5.2080 O.co2 156  GLU156     -0.2457
    164  N         11.2570    2.7660    3.2400 N.am  157  ASN157     -0.1974
    165  CA        10.3650    3.2780    2.2160 C.3   157  ASN157      0.1688
    166  C          8.9490    2.7380    2.2140 C.2   157  ASN157      0.2292
    167  O          8.1470    3.1520    1.3880 O.2   157  ASN157     -0.2864
    168  CB        10.9990    3.1010    0.8370 C.3   157  ASN157      0.1181
    169  CG        12.0410    4.1700    0.5400 C.2   157  ASN157      0.2629
    170  OD1       12.3220    5.0420    1.3810 O.2   157  ASN157     -0.2716
    171  ND2       12.6150    4.1180   -0.6610 N.am  157  ASN157     -0.0877
    172  N          5.4520    2.6250    4.1160 N.3   159  LEU159     -0.1245
    173  CA         4.6620    3.2190    5.1850 C.3   159  LEU159      0.1561
    174  C          3.4490    2.3470    5.5540 C.2   159  LEU159      0.2260
    175  O          3.0460    1.4870    4.7670 O.2   159  LEU159     -0.2867
    176  CB         4.2510    4.6210    4.7680 C.3   159  LEU159      0.0270
    177  CG         5.4850    5.5120    4.8790 C.3   159  LEU159      0.0019
    178  CD1        5.5800    6.4130    3.6990 C.3   159  LEU159      0.0001
    179  CD2        5.4260    6.3010    6.1630 C.3   159  LEU159      0.0001
    180  N          6.4700    4.1700   -1.2220 N.3   169  THR169     -0.1203
    181  CA         6.7470    5.5680   -1.5110 C.3   169  THR169      0.1994
    182  C          8.0690    5.5880   -2.2380 C.2   169  THR169      0.2617
    183  O          8.5590    4.5450   -2.6510 O.2   169  THR169     -0.2717
    184  CB         6.8820    6.4250   -0.2350 C.3   169  THR169      0.1784
    185  OG1        7.8430    5.8270    0.6450 O.3   169  THR169     -0.2211
    186  CG2        5.5460    6.5640    0.4680 C.3   169  THR169      0.0376
    187  N          8.6430    6.7760   -2.3780 N.am  170  ASP170     -0.1973
    188  CA         9.9240    6.9700   -3.0510 C.3   170  ASP170      0.1709
    189  C         10.0090    6.2910   -4.4120 C.2   170  ASP170      0.2293
    190  O         10.3640    5.1190   -4.5070 O.2   170  ASP170     -0.2864
    191  CB        11.0810    6.4620   -2.1880 C.3   170  ASP170      0.1436
    192  CG        12.3580    7.2140   -2.4490 C.2   170  ASP170      0.3671
    193  OD1       12.5660    7.6480   -3.5930 O.co2 170  ASP170     -0.2456
    194  OD2       13.1630    7.3800   -1.5180 O.co2 170  ASP170     -0.2456
    195  N          6.4480    9.0500   13.6320 N.3   313  PHE313     -0.1241
    196  CA         7.5680    9.5030   12.8160 C.3   313  PHE313      0.1605
    197  C          8.6140   10.0930   13.7570 C.2   313  PHE313      0.2264
    198  O          8.2700   10.6220   14.8130 O.2   313  PHE313     -0.2867
    199  CB         7.1010   10.5780   11.8310 C.3   313  PHE313      0.0534
    200  CG         6.1490   10.0770   10.7770 C.ar  313  PHE313     -0.0203
    201  CD1        6.6170    9.3550    9.6800 C.ar  313  PHE313     -0.0042
    202  CD2        4.7840   10.3330   10.8780 C.ar  313  PHE313     -0.0042
    203  CE1        5.7450    8.8970    8.7000 C.ar  313  PHE313     -0.0003
    204  CE2        3.9000    9.8770    9.9000 C.ar  313  PHE313     -0.0003
    205  CZ         4.3820    9.1580    8.8100 C.ar  313  PHE313     -0.0000
@<TRIPOS>BOND
     1    85    86    1
     2    87    86    1
     3    87    88    2
     4    86    89    1
     5    89    90    1
     6    90    91    1
     7    92    91   ar
     8    91    93   ar
     9    81    82    1
    10    81    78    1
    11    82    84    1
    12    82    83    1
    13    39    40   ar
    14    39    37   ar
    15    80    79    2
    16    40    38   ar
    17    37    35   ar
    18   190   189    2
    19    38    36   ar
    20    79    78    1
    21   189   188    1
    22    97    96    2
    23    78    77    1
    24    35    36   ar
    25    35    34    1
    26   193   192   ar
    27    34    31    1
    28    96    95    1
    29    76    75    1
    30   188   187    1
    31   188   191    1
    32    75    74    1
    33    94    95    1
    34   183   182    2
    35    74    73    1
    36    71    70    2
    37   100    98    1
    38   106   107    1
    39   106   105    1
    40   192   191    1
    41   192   194   ar
    42   187   182   am
    43    33    32    2
    44    29    28    1
    45   182   181    1
    46    95    98    1
    47    31    32    1
    48    31    30    1
    49    73    72    1
    50   107   108    1
    51    72    69    1
    52    32    41    1
    53   101   102    1
    54    70    69    1
    55   102   105    1
    56   102   103    1
    57    98    99    1
    58   181   180    1
    59   181   184    1
    60    30    26   am
    61    28    25    1
    62    69    68    1
    63   171   169   am
    64    41    42    2
    65    26    27    2
    66    26    25    1
    67   103   109   am
    68   103   104    2
    69   109   110    1
    70   184   186    1
    71   184   185    1
    72    42    43    1
    73    25    24    1
    74   113   110    1
    75   113   114    1
    76   117   115   ar
    77   146   147    1
    78   116   115   ar
    79   115   114    1
    80   169   168    1
    81   169   170    2
    82   110   111    1
    83    66    65    2
    84   168   165    1
    85    24    22   am
    86   153   154    1
    87   153   152    1
    88    43    45   am
    89    43    44    2
    90   167   166    2
    91    45    46    1
    92   151   152    1
    93   151   150    1
    94    48    47    2
    95   147   150    1
    96   147   148    1
    97    65    64    1
    98    62    60    1
    99   112   111    2
   100   111   118   am
   101    23    22    2
   102    22    21    1
   103   166   165    1
   104   165   164    1
   105   149   148    2
   106    47    46    1
   107    47    56   am
   108    63    64    1
   109    46    49    1
   110    64    67    1
   111    61    60    1
   112   118   119    1
   113    60    57    1
   114    21    20    2
   115   164   157   am
   116    57    56    1
   117    57    58    1
   118    50    49    1
   119    50    51    1
   120   136   134    1
   121   178   177    1
   122    20    15    1
   123   172   173    1
   124   157   158    2
   125   157   156    1
   126    51    52    1
   127   119   120    1
   128   119   122    1
   129    58    59    2
   130    15    16    2
   131    15    14    1
   132   175   174    2
   133   176   177    1
   134   176   173    1
   135   121   120    2
   136   120   130   am
   137   177   179    1
   138   159   156    1
   139   159   160    1
   140   155   156    1
   141   162   161   ar
   142   134   135    1
   143   134   131    1
   144   173   174    1
   145   163   161   ar
   146   130   131    1
   147   122   123    1
   148    14    13    1
   149    14    17    1
   150   161   160    1
   151    12    11    2
   152    52    53    2
   153    18    17    1
   154   131   132    1
   155    11    13   am
   156    11    10    1
   157    54    53    1
   158    17    19    1
   159    53    55    1
   160    10     9    1
   161   123   124   ar
   162   123   125   ar
   163   124   126   ar
   164     7     6    1
   165     9     3   am
   166   132   133    2
   167   145   143   ar
   168   142   143    1
   169   142   141    1
   170   143   144   ar
   171     5     6    1
   172     5     2    1
   173   125   127   ar
   174     6     8    1
   175     3     4    2
   176     3     2    1
   177     1     2    1
   178   126   128   ar
   179   141   138    1
   180   138   139    1
   181   138   137    1
   182   203   205   ar
   183   203   201   ar
   184   205   204   ar
   185   139   140    2
   186   127   128   ar
   187   128   129    1
   188   201   200   ar
   189   204   202   ar
   190   200   202   ar
   191   200   199    1
   192   199   196    1
   193   196   195    1
   194   196   197    1
   195   197   198    2
