@<TRIPOS>MOLECULE
tmp/2f8eA00.pdb
 122 116 0 0 0
SMALL
GASTEIGER

@<TRIPOS>ATOM
      1  N         13.2930   35.8870   11.0170 N.3   168  ARG168     -0.1245
      2  CA        14.2270   34.9070   10.4610 C.3   168  ARG168      0.1563
      3  C         14.8240   35.4130    9.1450 C.2   168  ARG168      0.2260
      4  O         14.2180   36.2610    8.4860 O.2   168  ARG168     -0.2867
      5  CB        13.5250   33.5620   10.2290 C.3   168  ARG168      0.0307
      6  CG        12.9990   32.8820   11.4860 C.3   168  ARG168      0.0489
      7  CD        13.1790   31.3770   11.4030 C.3   168  ARG168      0.2205
      8  NE        14.5510   30.9880   11.7280 N.pl3 168  ARG168     -0.0865
      9  CZ        15.0960   29.8090   11.4400 C.cat 168  ARG168      0.5346
     10  NH1       14.3970   28.8770   10.8050 N.pl3 168  ARG168      0.1354
     11  NH2       16.3520   29.5630   11.7860 N.pl3 168  ARG168      0.1354
     12  N         10.7900   27.6230   12.7940 N.3   179  ARG179     -0.1245
     13  CA        11.1270   26.8400   13.9830 C.3   179  ARG179      0.1563
     14  C          9.8740   26.5800   14.8170 C.2   179  ARG179      0.2260
     15  O          8.9010   27.3330   14.7350 O.2   179  ARG179     -0.2867
     16  CB        12.2040   27.5490   14.8170 C.3   179  ARG179      0.0307
     17  CG        13.4520   27.9290   14.0220 C.3   179  ARG179      0.0489
     18  CD        14.6850   28.1060   14.9000 C.3   179  ARG179      0.2205
     19  NE        14.6830   29.3560   15.6620 N.pl3 179  ARG179     -0.0865
     20  CZ        14.4350   29.4450   16.9690 C.cat 179  ARG179      0.5346
     21  NH1       14.1570   28.3580   17.6820 N.pl3 179  ARG179      0.1354
     22  NH2       14.4620   30.6260   17.5700 N.pl3 179  ARG179      0.1354
     23  N         20.1620   20.7320   13.2660 N.3   243  ALA243     -0.1231
     24  CA        19.0140   20.3000   14.0760 C.3   243  ALA243      0.1694
     25  C         19.4560   19.4900   15.2990 C.2   243  ALA243      0.2592
     26  O         19.1970   18.2850   15.3950 O.2   243  ALA243     -0.2718
     27  CB        18.0000   19.5250   13.2250 C.3   243  ALA243      0.0304
     28  N         20.1310   20.1750   16.2210 N.am  244  PHE244     -0.1962
     29  CA        20.7340   19.5630   17.4100 C.3   244  PHE244      0.1771
     30  C         19.7260   18.8490   18.3120 C.2   244  PHE244      0.2619
     31  O         20.0290   17.7910   18.8700 O.2   244  PHE244     -0.2715
     32  CB        21.5020   20.6290   18.2030 C.3   244  PHE244      0.0574
     33  CG        22.3510   20.0800   19.3220 C.ar  244  PHE244     -0.0200
     34  CD1       23.4210   19.2300   19.0550 C.ar  244  PHE244     -0.0042
     35  CD2       22.0980   20.4390   20.6420 C.ar  244  PHE244     -0.0042
     36  CE1       24.2140   18.7310   20.0850 C.ar  244  PHE244     -0.0003
     37  CE2       22.8860   19.9470   21.6810 C.ar  244  PHE244     -0.0003
     38  CZ        23.9470   19.0910   21.4010 C.ar  244  PHE244     -0.0000
     39  N         18.5330   19.4290   18.4420 N.am  245  ASP245     -0.1971
     40  CA        17.4800   18.8850   19.3030 C.3   245  ASP245      0.1709
     41  C         16.8910   17.5830   18.7750 C.2   245  ASP245      0.2293
     42  O         16.7980   16.5960   19.5080 O.2   245  ASP245     -0.2864
     43  CB        16.3570   19.9100   19.4960 C.3   245  ASP245      0.1436
     44  CG        16.8100   21.1400   20.2560 C.2   245  ASP245      0.3671
     45  OD1       18.0250   21.4250   20.2540 O.co2 245  ASP245     -0.2456
     46  OD2       15.9500   21.8230   20.8500 O.co2 245  ASP245     -0.2456
     47  N         11.6890   20.7670   21.6430 N.3   298  SER298     -0.1217
     48  CA        12.3130   22.0850   21.7180 C.3   298  SER298      0.1889
     49  C         11.3900   23.0910   22.4060 C.2   298  SER298      0.2288
     50  O         10.7420   23.9060   21.7440 O.2   298  SER298     -0.2866
     51  CB        12.6900   22.5770   20.3160 C.3   298  SER298      0.2089
     52  OG        13.5060   21.6360   19.6400 O.3   298  SER298     -0.2183
     53  N         15.4020   22.6140   28.8520 N.3   303  THR303     -0.1203
     54  CA        15.7710   22.1620   27.5030 C.3   303  THR303      0.1994
     55  C         17.1720   22.6210   27.0900 C.2   303  THR303      0.2618
     56  O         17.8830   21.9080   26.3780 O.2   303  THR303     -0.2717
     57  CB        14.7250   22.5850   26.4280 C.3   303  THR303      0.1784
     58  OG1       15.0960   22.0470   25.1520 O.3   303  THR303     -0.2211
     59  CG2       14.6020   24.1090   26.3210 C.3   303  THR303      0.0376
     60  N         17.5510   23.8130   27.5470 N.am  304  SER304     -0.1951
     61  CA        18.8640   24.3840   27.2690 C.3   304  SER304      0.1924
     62  C         19.9460   23.6890   28.0880 C.2   304  SER304      0.2314
     63  O         21.0710   23.5190   27.6190 O.2   304  SER304     -0.2863
     64  CB        18.8660   25.8860   27.5610 C.3   304  SER304      0.2116
     65  OG        17.8800   26.5590   26.7950 O.3   304  SER304     -0.2180
     66  N         20.5010   19.9110   26.7010 N.3   307  ASN307     -0.1240
     67  CA        21.2890   19.9900   25.4700 C.3   307  ASN307      0.1653
     68  C         22.7370   20.4080   25.7090 C.2   307  ASN307      0.2266
     69  O         23.6380   19.9710   24.9910 O.2   307  ASN307     -0.2867
     70  CB        20.6220   20.9270   24.4600 C.3   307  ASN307      0.1155
     71  CG        19.3670   20.3300   23.8500 C.2   307  ASN307      0.2627
     72  OD1       18.6190   19.6080   24.5120 O.2   307  ASN307     -0.2716
     73  ND2       19.1290   20.6320   22.5800 N.am  307  ASN307     -0.0877
     74  N         25.9500   26.6460   25.1660 N.3   336  TYR336     -0.1227
     75  CA        24.5710   27.0020   25.4660 C.3   336  TYR336      0.1736
     76  C         23.6740   26.2870   24.4610 C.2   336  TYR336      0.2596
     77  O         23.4660   26.7720   23.3460 O.2   336  TYR336     -0.2718
     78  CB        24.3690   28.5180   25.3840 C.3   336  TYR336      0.0548
     79  CG        23.1600   29.0230   26.1440 C.ar  336  TYR336     -0.0200
     80  CD1       23.3010   29.9560   27.1680 C.ar  336  TYR336     -0.0009
     81  CD2       21.8750   28.5630   25.8450 C.ar  336  TYR336     -0.0009
     82  CE1       22.1970   30.4230   27.8700 C.ar  336  TYR336      0.0417
     83  CE2       20.7680   29.0190   26.5430 C.ar  336  TYR336      0.0417
     84  CZ        20.9370   29.9470   27.5530 C.ar  336  TYR336      0.1957
     85  OH        19.8420   30.3980   28.2440 O.3   336  TYR336     -0.2866
     86  N         23.1550   25.1290   24.8600 N.am  337  GLY337     -0.1942
     87  CA        22.3560   24.2890   23.9710 C.3   337  GLY337      0.2014
     88  C         23.2060   23.7090   22.8560 C.2   337  GLY337      0.2639
     89  O         23.9560   22.7530   23.0720 O.2   337  GLY337     -0.2714
     90  N         23.0880   24.2940   21.6650 N.am  338  ASP338     -0.1957
     91  CA        23.9100   23.8960   20.5190 C.3   338  ASP338      0.1840
     92  C         25.0870   24.8440   20.2830 C.2   338  ASP338      0.2622
     93  O         26.1060   24.4410   19.7170 O.2   338  ASP338     -0.2715
     94  CB        23.0650   23.7410   19.2450 C.3   338  ASP338      0.1450
     95  CG        22.2630   24.9920   18.9000 C.2   338  ASP338      0.3671
     96  OD1       22.4540   26.0490   19.5390 O.co2 338  ASP338     -0.2456
     97  OD2       21.4330   24.9140   17.9700 O.co2 338  ASP338     -0.2456
     98  N         24.9290   26.1020   20.7040 N.am  339  ASP339     -0.1971
     99  CA        26.0200   27.0780   20.6960 C.3   339  ASP339      0.1709
    100  C         27.1790   26.5510   21.5270 C.2   339  ASP339      0.2293
    101  O         26.9850   26.1300   22.6660 O.2   339  ASP339     -0.2864
    102  CB        25.5550   28.4310   21.2460 C.3   339  ASP339      0.1436
    103  CG        25.3470   29.4710   20.1570 C.2   339  ASP339      0.3671
    104  OD1       26.2090   29.5840   19.2570 O.co2 339  ASP339     -0.2456
    105  OD2       24.3270   30.1900   20.2090 O.co2 339  ASP339     -0.2456
    106  N         26.4620   32.7390   21.0860 N.3   386  LEU386     -0.1231
    107  CA        25.1870   33.3810   21.4400 C.3   386  LEU386      0.1693
    108  C         24.8850   34.6090   20.5720 C.2   386  LEU386      0.2591
    109  O         24.3900   35.6250   21.0700 O.2   386  LEU386     -0.2718
    110  CB        25.1430   33.7440   22.9350 C.3   386  LEU386      0.0284
    111  CG        25.1230   32.6110   23.9670 C.3   386  LEU386      0.0019
    112  CD1       25.5000   33.1370   25.3460 C.3   386  LEU386      0.0001
    113  CD2       23.7620   31.9180   24.0020 C.3   386  LEU386      0.0001
    114  N         25.1890   34.4960   19.2770 N.am  387  LYS387     -0.1980
    115  CA        25.0370   35.5910   18.3040 C.3   387  LYS387      0.1596
    116  C         25.9250   36.7960   18.6280 C.2   387  LYS387      0.2287
    117  O         25.7980   37.8580   18.0120 O.2   387  LYS387     -0.2864
    118  CB        23.5690   36.0210   18.1840 C.3   387  LYS387      0.0298
    119  CG        22.6560   34.9780   17.5530 C.3   387  LYS387      0.0038
    120  CD        21.2270   35.0870   18.0740 C.3   387  LYS387      0.0206
    121  CE        20.5870   36.4330   17.7580 C.3   387  LYS387      0.1093
    122  NZ        19.3420   36.6420   18.5490 N.3   387  LYS387     -0.1314
@<TRIPOS>BOND
     1     4     3    2
     2     3     2    1
     3     5     2    1
     4     5     6    1
     5     2     1    1
     6    10     9    1
     7     7     6    1
     8     7     8    1
     9     9     8    2
    10     9    11    1
    11    12    13    1
    12    27    24    1
    13    23    24    1
    14    13    16    1
    15    13    14    1
    16    17    16    1
    17    17    18    1
    18    24    25    1
    19    15    14    2
    20    18    19    1
    21    25    26    2
    22    25    28   am
    23    19    20    2
    24    28    29    1
    25    20    22    1
    26    20    21    1
    27    29    32    1
    28    29    30    1
    29   119   120    1
    30   119   118    1
    31   121   120    1
    32   121   122    1
    33    97    95   ar
    34   117   116    2
    35   118   115    1
    36    32    33    1
    37   115   116    1
    38   115   114    1
    39    30    39   am
    40    30    31    2
    41    39    40    1
    42    41    40    1
    43    41    42    2
    44    95    94    1
    45    95    96   ar
    46    34    33   ar
    47    34    36   ar
    48    94    91    1
    49   104   103   ar
    50   114   108   am
    51    40    43    1
    52    33    35   ar
    53    43    44    1
    54    52    51    1
    55    93    92    2
    56    36    38   ar
    57   103   105   ar
    58   103   102    1
    59    45    44   ar
    60    44    46   ar
    61    92    91    1
    62    92    98   am
    63    51    48    1
    64    91    90    1
    65   108   109    2
    66   108   107    1
    67    35    37   ar
    68    99    98    1
    69    99   102    1
    70    99   100    1
    71   106   107    1
    72    38    37   ar
    73   107   110    1
    74   100   101    2
    75    47    48    1
    76    90    88   am
    77    48    49    1
    78    50    49    2
    79    73    71   am
    80    88    89    2
    81    88    87    1
    82   110   111    1
    83    77    76    2
    84    71    70    1
    85    71    72    2
    86   111   113    1
    87   111   112    1
    88    87    86    1
    89    70    67    1
    90    76    86   am
    91    76    75    1
    92    69    68    2
    93    58    57    1
    94    74    75    1
    95    78    75    1
    96    78    79    1
    97    67    68    1
    98    67    66    1
    99    81    79   ar
   100    81    83   ar
   101    79    80   ar
   102    59    57    1
   103    56    55    2
   104    57    54    1
   105    83    84   ar
   106    65    64    1
   107    55    54    1
   108    55    60   am
   109    80    82   ar
   110    61    60    1
   111    61    64    1
   112    61    62    1
   113    54    53    1
   114    84    82   ar
   115    84    85    1
   116    63    62    2
