@<TRIPOS>MOLECULE
tmp/2f8iA00.pdb
 71 65 0 0 0
SMALL
GASTEIGER

@<TRIPOS>ATOM
      1  N         22.5470    7.5610   29.4580 N.3     6  LYS6       -0.1245
      2  CA        23.4980    6.4270   29.5500 C.3     6  LYS6        0.1561
      3  C         24.2310    6.3280   28.2380 C.2     6  LYS6        0.2260
      4  O         23.5590    6.4200   27.1820 O.2     6  LYS6       -0.2867
      5  CB        22.8000    5.1430   29.9390 C.3     6  LYS6        0.0271
      6  CG        23.6210    3.8840   29.9870 C.3     6  LYS6        0.0035
      7  CD        24.8360    3.9560   30.8690 C.3     6  LYS6        0.0206
      8  CE        25.6420    2.6570   30.7880 C.3     6  LYS6        0.1093
      9  NZ        25.0160    1.6090   31.6390 N.3     6  LYS6       -0.1314
     10  N         27.1800    4.2330   25.8770 N.3     8  LEU8       -0.1245
     11  CA        28.1220    3.1080   25.7510 C.3     8  LEU8        0.1561
     12  C         29.0380    3.2950   24.5280 C.2     8  LEU8        0.2260
     13  O         28.6430    3.9330   23.5530 O.2     8  LEU8       -0.2867
     14  CB        27.3470    1.8040   25.6350 C.3     8  LEU8        0.0270
     15  CG        26.4610    1.3970   26.8130 C.3     8  LEU8        0.0019
     16  CD1       25.7190    0.1220   26.4850 C.3     8  LEU8        0.0001
     17  CD2       27.2790    1.2660   28.0790 C.3     8  LEU8        0.0001
     18  N         27.0480    6.8720   32.9730 N.3    45  GLU45      -0.1245
     19  CA        25.7420    7.4160   33.3600 C.3    45  GLU45       0.1567
     20  C         25.8290    8.8600   33.7990 C.2    45  GLU45       0.2260
     21  O         26.8220    9.2940   34.3720 O.2    45  GLU45      -0.2867
     22  CB        25.1100    6.5970   34.5040 C.3    45  GLU45       0.0388
     23  CG        24.5750    5.2370   34.0380 C.3    45  GLU45       0.1160
     24  CD        24.2070    4.2780   35.1560 C.2    45  GLU45       0.3649
     25  OE1       23.9870    3.0900   34.8330 O.co2  45  GLU45      -0.2457
     26  OE2       24.1590    4.6820   36.3380 O.co2  45  GLU45      -0.2457
     27  N         14.9420    7.7320   30.4250 N.3    97  THR97      -0.1218
     28  CA        16.3390    7.3570   30.2270 C.3    97  THR97       0.1862
     29  C         16.6430    7.4680   28.7470 C.2    97  THR97       0.2287
     30  O         15.9440    6.8660   27.9350 O.2    97  THR97      -0.2866
     31  CB        16.6140    5.9480   30.7180 C.3    97  THR97       0.1770
     32  OG1       16.3170    5.8800   32.1170 O.3    97  THR97      -0.2211
     33  CG2       18.0910    5.5620   30.4940 C.3    97  THR97       0.0375
     34  N         19.4210    6.5360   26.1610 N.3    99  ALA99      -0.1231
     35  CA        20.5950    5.6840   26.0420 C.3    99  ALA99       0.1694
     36  C         21.1780    5.8940   24.6520 C.2    99  ALA99       0.2592
     37  O         20.4250    6.0830   23.6870 O.2    99  ALA99      -0.2718
     38  CB        20.2190    4.2320   26.2240 C.3    99  ALA99       0.0304
     39  N         22.4950    5.8750   24.5530 N.am  100  ALA100     -0.1966
     40  CA        23.1640    6.0010   23.2620 C.3   100  ALA100      0.1728
     41  C         24.3240    5.0460   23.1740 C.2   100  ALA100      0.2616
     42  O         25.0130    4.8270   24.1660 O.2   100  ALA100     -0.2715
     43  CB        23.6340    7.4010   23.0400 C.3   100  ALA100      0.0334
     44  N         24.5270    4.4870   21.9830 N.am  101  LEU101     -0.1977
     45  CA        25.6110    3.5770   21.7280 C.3   101  LEU101      0.1596
     46  C         26.4410    4.1650   20.5840 C.2   101  LEU101      0.2287
     47  O         25.9110    4.4730   19.5170 O.2   101  LEU101     -0.2864
     48  CB        25.0320    2.2150   21.3600 C.3   101  LEU101      0.0297
     49  CG        26.0280    1.1650   20.8680 C.3   101  LEU101      0.0022
     50  CD1       26.9890    0.7580   21.9770 C.3   101  LEU101      0.0001
     51  CD2       25.2380   -0.0360   20.3950 C.3   101  LEU101      0.0001
     52  N         23.4660    5.0000   17.8420 N.3   108  SER108     -0.1202
     53  CA        22.1180    4.5150   18.0310 C.3   108  SER108      0.2020
     54  C         21.6270    5.0780   19.3310 C.2   108  SER108      0.2619
     55  O         22.4040    5.1950   20.2770 O.2   108  SER108     -0.2717
     56  CB        22.0920    2.9930   18.0670 C.3   108  SER108      0.2103
     57  OG        20.7690    2.5180   18.1730 O.3   108  SER108     -0.2182
     58  N         20.3570    5.4380   19.3860 N.am  109  THR109     -0.1938
     59  CA        19.7800    5.9330   20.6260 C.3   109  THR109      0.2028
     60  C         18.4230    5.3540   20.8480 C.2   109  THR109      0.2642
     61  O         17.6660    5.1140   19.8970 O.2   109  THR109     -0.2714
     62  CB        19.7710    7.4790   20.6380 C.3   109  THR109      0.1808
     63  OG1       19.3320    7.9810   21.9040 O.3   109  THR109     -0.2208
     64  CG2       18.8930    8.0710   19.5340 C.3   109  THR109      0.0379
     65  N         18.1040    5.1200   22.1130 N.am  110  THR110     -0.1950
     66  CA        16.7730    4.6610   22.4760 C.3   110  THR110      0.1897
     67  C         16.3380    5.3840   23.7300 C.2   110  THR110      0.2313
     68  O         17.1570    5.9160   24.4720 O.2   110  THR110     -0.2863
     69  CB        16.6460    3.1200   22.6670 C.3   110  THR110      0.1794
     70  OG1       15.2510    2.7220   22.6380 O.3   110  THR110     -0.2208
     71  CG2       17.2180    2.6850   23.9620 C.3   110  THR110      0.0378
@<TRIPOS>BOND
     1    52    53    1
     2    53    56    1
     3    53    54    1
     4    56    57    1
     5    54    58   am
     6    54    55    2
     7    58    59    1
     8    47    46    2
     9    64    62    1
    10    61    60    2
    11    51    49    1
    12    46    45    1
    13    59    62    1
    14    59    60    1
    15    62    63    1
    16    60    65   am
    17    49    48    1
    18    49    50    1
    19    48    45    1
    20    45    44    1
    21    44    41   am
    22    65    66    1
    23    66    69    1
    24    66    67    1
    25    70    69    1
    26    69    71    1
    27    43    40    1
    28    41    40    1
    29    41    42    2
    30    40    39    1
    31    13    12    2
    32    37    36    2
    33    67    68    2
    34    12    11    1
    35    39    36   am
    36    36    35    1
    37    14    11    1
    38    14    15    1
    39    11    10    1
    40    35    34    1
    41    35    38    1
    42    16    15    1
    43    15    17    1
    44     4     3    2
    45    30    29    2
    46     3     2    1
    47    29    28    1
    48     1     2    1
    49     2     5    1
    50     5     6    1
    51     6     7    1
    52    28    27    1
    53    28    31    1
    54    33    31    1
    55    31    32    1
    56     8     7    1
    57     8     9    1
    58    18    19    1
    59    19    20    1
    60    19    22    1
    61    20    21    2
    62    23    22    1
    63    23    24    1
    64    25    24   ar
    65    24    26   ar
