@<TRIPOS>MOLECULE
tmp/2f8jC00.pdb
 149 139 0 0 0
SMALL
GASTEIGER

@<TRIPOS>ATOM
      1  N        -20.5030   66.1760   -4.0870 N.3    26  LEU26      -0.1231
      2  CA       -21.5930   65.4680   -4.7850 C.3    26  LEU26       0.1693
      3  C        -21.4340   65.3620   -6.3070 C.2    26  LEU26       0.2592
      4  O        -22.3690   65.0010   -7.0120 O.2    26  LEU26      -0.2718
      5  CB       -22.9610   66.0980   -4.4570 C.3    26  LEU26       0.0284
      6  CG       -23.7280   65.5640   -3.2350 C.3    26  LEU26       0.0019
      7  CD1      -25.0660   66.2920   -3.0830 C.3    26  LEU26       0.0001
      8  CD2      -23.9580   64.0480   -3.2960 C.3    26  LEU26       0.0001
      9  N        -20.2490   65.6610   -6.8060 N.am   27  ASN27      -0.1974
     10  CA       -19.9840   65.6150   -8.2370 C.3    27  ASN27       0.1688
     11  C        -20.8970   66.5180   -9.0880 C.2    27  ASN27       0.2292
     12  O        -21.2130   66.1850  -10.2320 O.2    27  ASN27      -0.2864
     13  CB       -19.9980   64.1660   -8.7390 C.3    27  ASN27       0.1181
     14  CG       -18.7920   63.3950   -8.2680 C.2    27  ASN27       0.2629
     15  OD1      -17.7780   63.9730   -7.8670 O.2    27  ASN27      -0.2716
     16  ND2      -18.8840   62.1050   -8.3260 N.am   27  ASN27      -0.0877
     17  N        -34.1920   61.4130  -12.6210 N.3    84  GLY84      -0.1210
     18  CA       -32.7900   61.1490  -12.3330 C.3    84  GLY84       0.1956
     19  C        -32.3980   59.7410  -12.7950 C.2    84  GLY84       0.2612
     20  O        -33.2400   58.8460  -12.9920 O.2    84  GLY84      -0.2717
     21  N        -31.1050   59.5450  -12.9870 N.am   85  ALA85      -0.1965
     22  CA       -30.5330   58.2180  -13.1250 C.3    85  ALA85       0.1728
     23  C        -30.8070   57.3480  -11.8980 C.2    85  ALA85       0.2616
     24  O        -30.8470   56.1280  -12.0100 O.2    85  ALA85      -0.2715
     25  CB       -29.0310   58.3260  -13.3340 C.3    85  ALA85       0.0334
     26  N        -30.9570   57.9840  -10.7360 N.am   86  ASP86      -0.1971
     27  CA       -31.3300   57.3150   -9.5050 C.3    86  ASP86       0.1709
     28  C        -32.6270   56.4990   -9.6590 C.2    86  ASP86       0.2293
     29  O        -32.6770   55.3510   -9.2030 O.2    86  ASP86      -0.2864
     30  CB       -31.5100   58.3380   -8.3660 C.3    86  ASP86       0.1436
     31  CG       -30.2010   58.6670   -7.6200 C.2    86  ASP86       0.3671
     32  OD1      -29.1120   58.1580   -8.0070 O.co2  86  ASP86      -0.2456
     33  OD2      -30.2800   59.4430   -6.6180 O.co2  86  ASP86      -0.2456
     34  N        -31.9260   53.2490  -11.8150 N.3    89  ILE89      -0.1245
     35  CA       -31.2920   52.2610  -10.9310 C.3    89  ILE89       0.1561
     36  C        -32.3240   51.6200   -9.9850 C.2    89  ILE89       0.2260
     37  O        -32.3940   50.4020   -9.8320 O.2    89  ILE89      -0.2867
     38  CB       -30.2370   52.9270  -10.0100 C.3    89  ILE89       0.0252
     39  CG1      -29.1190   53.6470  -10.7990 C.3    89  ILE89       0.0019
     40  CG2      -29.6630   51.9230   -9.0000 C.3    89  ILE89       0.0019
     41  CD1      -28.3880   52.7830  -11.7490 C.3    89  ILE89       0.0001
     42  N        -20.8150   53.3580   -6.5130 N.3   106  TYR106     -0.1241
     43  CA       -21.8230   54.3720   -6.1810 C.3   106  TYR106      0.1605
     44  C        -22.5730   53.9690   -4.9260 C.2   106  TYR106      0.2264
     45  O        -23.0800   52.8560   -4.8270 O.2   106  TYR106     -0.2867
     46  CB       -22.7890   54.5280   -7.3540 C.3   106  TYR106      0.0534
     47  CG       -23.8210   55.6220   -7.2630 C.ar  106  TYR106     -0.0201
     48  CD1      -23.4790   56.8990   -6.8390 C.ar  106  TYR106     -0.0009
     49  CD2      -25.1430   55.3900   -7.6730 C.ar  106  TYR106     -0.0009
     50  CE1      -24.4270   57.9190   -6.7920 C.ar  106  TYR106      0.0417
     51  CE2      -26.0970   56.3960   -7.6450 C.ar  106  TYR106      0.0417
     52  CZ       -25.7350   57.6600   -7.1950 C.ar  106  TYR106      0.1957
     53  OH       -26.6550   58.6650   -7.1570 O.3   106  TYR106     -0.2866
     54  N        -20.6720   51.2150  -12.8810 N.3   145  PRO145     -0.2116
     55  CA       -20.4130   52.5800  -13.3430 C.3   145  PRO145      0.1372
     56  C        -19.1610   52.6080  -14.2010 C.2   145  PRO145      0.2244
     57  O        -18.1860   51.9670  -13.8560 O.2   145  PRO145     -0.2868
     58  CB       -20.1980   53.3840  -12.0420 C.3   145  PRO145      0.0268
     59  CG       -20.5210   52.4480  -10.9070 C.3   145  PRO145      0.0207
     60  CD       -20.4730   51.0630  -11.4260 C.3   145  PRO145      0.0892
     61  N        -17.4420   55.3370   -9.9810 N.3   149  ASN149     -0.1240
     62  CA       -17.6010   56.2800   -8.9250 C.3   149  ASN149      0.1653
     63  C        -17.3240   55.4640   -7.6700 C.2   149  ASN149      0.2266
     64  O        -17.9780   54.4480   -7.4700 O.2   149  ASN149     -0.2867
     65  CB       -19.0520   56.7780   -8.9640 C.3   149  ASN149      0.1155
     66  CG       -19.3260   57.9120   -7.9970 C.2   149  ASN149      0.2627
     67  OD1      -18.4110   58.5850   -7.5200 O.2   149  ASN149     -0.2716
     68  ND2      -20.6020   58.1430   -7.7220 N.am  149  ASN149     -0.0877
     69  N        -23.6430   52.2330  -15.9670 N.3   173  ASP173     -0.1239
     70  CA       -23.9790   53.5480  -15.4660 C.3   173  ASP173      0.1674
     71  C        -22.9560   54.5550  -15.9890 C.2   173  ASP173      0.2266
     72  O        -21.8620   54.6920  -15.4320 O.2   173  ASP173     -0.2867
     73  CB       -23.9850   53.5090  -13.9230 C.3   173  ASP173      0.1410
     74  CG       -24.5890   54.7630  -13.2870 C.2   173  ASP173      0.3668
     75  OD1      -24.6900   55.8080  -13.9580 O.co2 173  ASP173     -0.2456
     76  OD2      -24.9900   54.6770  -12.0930 O.co2 173  ASP173     -0.2456
     77  N        -22.9200   57.8550  -15.9970 N.3   175  ALA175     -0.1231
     78  CA       -23.1550   59.1660  -15.3970 C.3   175  ALA175      0.1694
     79  C        -22.0390   60.1680  -15.6660 C.2   175  ALA175      0.2592
     80  O        -22.3020   61.3760  -15.7090 O.2   175  ALA175     -0.2718
     81  CB       -23.3700   59.0180  -13.8760 C.3   175  ALA175      0.0304
     82  N        -20.8040   59.6770  -15.8430 N.am  176  TYR176     -0.1976
     83  CA       -19.6360   60.5440  -16.0840 C.3   176  TYR176      0.1639
     84  C        -19.0860   60.4400  -17.5070 C.2   176  TYR176      0.2290
     85  O        -17.9530   60.8810  -17.7820 O.2   176  TYR176     -0.2864
     86  CB       -18.5450   60.2540  -15.0380 C.3   176  TYR176      0.0560
     87  CG       -19.0850   60.4680  -13.6440 C.ar  176  TYR176     -0.0198
     88  CD1      -19.2780   61.7590  -13.1380 C.ar  176  TYR176     -0.0009
     89  CD2      -19.4690   59.3790  -12.8420 C.ar  176  TYR176     -0.0009
     90  CE1      -19.8290   61.9580  -11.8780 C.ar  176  TYR176      0.0417
     91  CE2      -20.0170   59.5760  -11.5660 C.ar  176  TYR176      0.0417
     92  CZ       -20.1950   60.8560  -11.0970 C.ar  176  TYR176      0.1957
     93  OH       -20.7460   61.0220   -9.8570 O.3   176  TYR176     -0.2866
     94  N        -27.3300   60.7520  -17.6150 N.3   199  THR199     -0.1218
     95  CA       -27.9580   61.8210  -16.8690 C.3   199  THR199      0.1862
     96  C        -27.6230   63.2040  -17.4180 C.2   199  THR199      0.2287
     97  O        -26.6280   63.3980  -18.1170 O.2   199  THR199     -0.2866
     98  CB       -27.6370   61.7260  -15.3580 C.3   199  THR199      0.1770
     99  OG1      -28.3270   62.7840  -14.6810 O.3   199  THR199     -0.2211
    100  CG2      -26.1270   61.7880  -15.0790 C.3   199  THR199      0.0375
    101  N        -27.5100   65.6200  -15.0760 N.3   201  SER201     -0.1202
    102  CA       -27.2040   66.2680  -13.8140 C.3   201  SER201      0.2020
    103  C        -25.7870   66.8310  -13.7090 C.2   201  SER201      0.2618
    104  O        -25.6030   67.9080  -13.1250 O.2   201  SER201     -0.2717
    105  CB       -27.4710   65.3150  -12.6550 C.3   201  SER201      0.2103
    106  OG       -28.8600   65.0590  -12.5740 O.3   201  SER201     -0.2182
    107  N        -24.8020   66.1360  -14.2750 N.am  202  LYS202     -0.1979
    108  CA       -23.3860   66.5060  -14.0720 C.3   202  LYS202      0.1596
    109  C        -22.8570   67.4660  -15.1230 C.2   202  LYS202      0.2287
    110  O        -22.3170   68.5110  -14.7930 O.2   202  LYS202     -0.2864
    111  CB       -22.4790   65.2700  -14.0640 C.3   202  LYS202      0.0298
    112  CG       -22.9580   64.1060  -13.1840 C.3   202  LYS202      0.0038
    113  CD       -23.3210   64.5630  -11.7770 C.3   202  LYS202      0.0206
    114  CE       -23.1620   63.4280  -10.7840 C.3   202  LYS202      0.1093
    115  NZ       -23.7100   62.2110  -11.3960 N.3   202  LYS202     -0.1314
    116  N        -28.8740   69.1010  -12.0880 N.3   207  ALA207     -0.1245
    117  CA       -29.0450   68.1810  -10.9630 C.3   207  ALA207      0.1562
    118  C        -30.3370   68.4110  -10.1660 C.2   207  ALA207      0.2260
    119  O        -30.9050   67.4570   -9.6400 O.2   207  ALA207     -0.2867
    120  CB       -27.8640   68.2540  -10.0420 C.3   207  ALA207      0.0290
    121  N        -33.5400   66.7300  -12.2860 N.3   210  ARG210     -0.1231
    122  CA       -33.7080   65.2760  -12.2570 C.3   210  ARG210      0.1694
    123  C        -34.1270   64.6870  -13.5930 C.2   210  ARG210      0.2591
    124  O        -35.2720   64.2530  -13.7390 O.2   210  ARG210     -0.2718
    125  CB       -34.7710   64.8370  -11.2040 C.3   210  ARG210      0.0321
    126  CG       -34.9080   65.6430   -9.8980 C.3   210  ARG210      0.0489
    127  CD       -33.6350   65.6710   -9.1150 C.3   210  ARG210      0.2205
    128  NE       -33.1030   64.3330   -8.8080 N.pl3 210  ARG210     -0.0865
    129  CZ       -31.9660   63.8300   -9.2950 C.cat 210  ARG210      0.5346
    130  NH1      -31.2320   64.5250  -10.1550 N.pl3 210  ARG210      0.1354
    131  NH2      -31.5610   62.6250   -8.9180 N.pl3 210  ARG210      0.1354
    132  N        -33.2180   64.6400  -14.5600 N.am  211  VAL211     -0.1980
    133  CA       -33.5040   63.9350  -15.8140 C.3   211  VAL211      0.1595
    134  C        -32.4010   62.9440  -16.1310 C.2   211  VAL211      0.2287
    135  O        -31.2410   63.3140  -16.3780 O.2   211  VAL211     -0.2864
    136  CB       -33.6990   64.8870  -17.0220 C.3   211  VAL211      0.0276
    137  CG1      -34.1540   64.0990  -18.2490 C.3   211  VAL211      0.0022
    138  CG2      -34.7200   65.9670  -16.7030 C.3   211  VAL211      0.0022
    139  N        -12.9550   61.5570   -2.3700 N.3   315  ARG315     -0.1245
    140  CA       -13.3260   61.9280   -3.7300 C.3   315  ARG315      0.1563
    141  C        -13.6420   63.4180   -3.6990 C.2   315  ARG315      0.2260
    142  O        -14.4840   63.8920   -2.9270 O.2   315  ARG315     -0.2867
    143  CB       -14.5060   61.0870   -4.2260 C.3   315  ARG315      0.0307
    144  CG       -14.8500   61.2570   -5.7020 C.3   315  ARG315      0.0489
    145  CD       -16.1960   61.9530   -5.8370 C.3   315  ARG315      0.2205
    146  NE       -17.2700   60.9860   -5.7770 N.pl3 315  ARG315     -0.0865
    147  CZ       -18.4500   61.1140   -5.1720 C.cat 315  ARG315      0.5346
    148  NH1      -18.8080   62.1910   -4.4850 N.pl3 315  ARG315      0.1354
    149  NH2      -19.2860   60.0900   -5.2390 N.pl3 315  ARG315      0.1354
@<TRIPOS>BOND
     1   137   136    1
     2    97    96    2
     3    85    84    2
     4    94    95    1
     5    84    83    1
     6    96    95    1
     7   136   138    1
     8   136   133    1
     9    95    98    1
    10   135   134    2
    11   134   133    1
    12    83    82    1
    13    83    86    1
    14    77    78    1
    15    71    70    1
    16    71    72    2
    17    69    70    1
    18    82    79   am
    19   133   132    1
    20    80    79    2
    21    79    78    1
    22    70    73    1
    23    78    81    1
    24    98   100    1
    25    98    99    1
    26   109   110    2
    27   109   108    1
    28   101   102    1
    29    86    87    1
    30   132   123   am
    31   107   108    1
    32   107   103   am
    33    56    57    2
    34    56    55    1
    35   108   111    1
    36   111   112    1
    37    75    74   ar
    38    73    74    1
    39   102   103    1
    40   102   105    1
    41   124   123    2
    42   103   104    2
    43    87    88   ar
    44    87    89   ar
    45   123   122    1
    46    55    54    1
    47    55    58    1
    48    25    22    1
    49    74    76   ar
    50   112   113    1
    51    88    90   ar
    52    22    21    1
    53    22    23    1
    54    20    19    2
    55    21    19   am
    56    54    60    1
    57    89    91   ar
    58    19    18    1
    59   105   106    1
    60    17    18    1
    61   121   122    1
    62   122   125    1
    63   116   117    1
    64    58    59    1
    65    24    23    2
    66    23    26   am
    67    90    92   ar
    68    34    35    1
    69   113   114    1
    70    41    39    1
    71    91    92   ar
    72    60    59    1
    73   115   114    1
    74   125   126    1
    75    92    93    1
    76   117   118    1
    77   117   120    1
    78    35    38    1
    79    35    36    1
    80    39    38    1
    81    26    27    1
    82    12    11    2
    83   118   119    2
    84   130   129    1
    85    38    40    1
    86    36    37    2
    87    61    62    1
    88   126   127    1
    89    28    27    1
    90    28    29    2
    91    27    30    1
    92   129   131    1
    93   129   128    2
    94   127   128    1
    95    11    10    1
    96    65    62    1
    97    65    66    1
    98    62    63    1
    99    13    14    1
   100    13    10    1
   101    30    31    1
   102    16    14   am
   103    14    15    2
   104    10     9    1
   105    32    31   ar
   106    66    68   am
   107    66    67    2
   108    49    51   ar
   109    49    47   ar
   110    63    64    2
   111    51    52   ar
   112    31    33   ar
   113    46    47    1
   114    46    43    1
   115    47    48   ar
   116    52    53    1
   117    52    50   ar
   118     4     3    2
   119    48    50   ar
   120     9     3   am
   121    42    43    1
   122     3     2    1
   123    43    44    1
   124   145   146    1
   125   145   144    1
   126   146   147    2
   127   144   143    1
   128   149   147    1
   129   147   148    1
   130    44    45    2
   131     2     5    1
   132     2     1    1
   133     5     6    1
   134   143   140    1
   135   140   141    1
   136   140   139    1
   137   141   142    2
   138     8     6    1
   139     6     7    1
