@<TRIPOS>MOLECULE
tmp/2f8pA00.pdb
 240 237 0 0 0
SMALL
GASTEIGER

@<TRIPOS>ATOM
      1  N          1.3610   31.3330   23.6480 N.3    21  HIS21      -0.1241
      2  CA         1.8750   32.6460   23.9360 C.3    21  HIS21       0.1621
      3  C          0.7880   33.6720   24.1680 C.2    21  HIS21       0.2264
      4  O          0.9620   34.5710   24.9990 O.2    21  HIS21      -0.2867
      5  CB         2.8520   33.0680   22.8490 C.3    21  HIS21       0.0745
      6  CG         4.1420   32.3230   22.9480 C.ar   21  HIS21       0.0817
      7  ND1        5.0270   32.5550   23.9740 N.ar   21  HIS21      -0.2268
      8  CD2        4.6690   31.3180   22.2150 C.ar   21  HIS21       0.1154
      9  CE1        6.0710   31.7500   23.8450 C.ar   21  HIS21       0.1986
     10  NE2        5.8670   30.9660   22.8030 N.ar   21  HIS21      -0.2212
     11  N         -0.3820   33.3350   27.7190 N.3    24  MET24      -0.1245
     12  CA         0.5870   34.0110   28.6160 C.3    24  MET24       0.1570
     13  C          0.5450   35.5390   28.5760 C.2    24  MET24       0.2261
     14  O          0.5800   36.1850   29.6210 O.2    24  MET24      -0.2867
     15  CB         2.0160   33.4510   28.4330 C.3    24  MET24       0.0387
     16  CG         2.0940   31.9750   28.8040 C.3    24  MET24       0.0595
     17  SD         1.6680   31.6350   30.5180 S.3    24  MET24      -0.1393
     18  CE         2.9410   32.5680   31.4010 C.3    24  MET24       0.0692
     19  N         -2.4580   36.5670   30.5290 N.3    27  PHE27      -0.1227
     20  CA        -2.1670   36.3170   31.9390 C.3    27  PHE27       0.1736
     21  C         -1.2520   37.4000   32.5280 C.2    27  PHE27       0.2595
     22  O         -1.4870   37.8820   33.6560 O.2    27  PHE27      -0.2718
     23  CB        -1.4930   34.9370   32.1040 C.3    27  PHE27       0.0547
     24  CG        -1.0560   34.6420   33.5200 C.ar   27  PHE27      -0.0202
     25  CD1       -2.0060   34.3720   34.5210 C.ar   27  PHE27      -0.0042
     26  CD2        0.3020   34.6190   33.8560 C.ar   27  PHE27      -0.0042
     27  CE1       -1.6040   34.0880   35.8330 C.ar   27  PHE27      -0.0003
     28  CE2        0.7130   34.3350   35.1560 C.ar   27  PHE27      -0.0003
     29  CZ        -0.2420   34.0590   36.1490 C.ar   27  PHE27      -0.0000
     30  N         -0.1870   37.7510   31.7950 N.am   28  LEU28      -0.1980
     31  CA         0.8080   38.7120   32.2630 C.3    28  LEU28       0.1596
     32  C          0.3900   40.2010   32.1400 C.2    28  LEU28       0.2287
     33  O          1.0090   41.0770   32.7710 O.2    28  LEU28      -0.2864
     34  CB         2.1430   38.4970   31.5400 C.3    28  LEU28       0.0297
     35  CG         2.7770   37.1030   31.6870 C.3    28  LEU28       0.0022
     36  CD1        3.9160   36.9410   30.7200 C.3    28  LEU28       0.0001
     37  CD2        3.2410   36.8730   33.0920 C.3    28  LEU28       0.0001
     38  N          4.8310   39.5270   37.3750 N.3    44  LYS44      -0.1231
     39  CA         4.1270   38.2270   37.4110 C.3    44  LYS44       0.1693
     40  C          5.0500   37.0050   37.2630 C.2    44  LYS44       0.2591
     41  O          4.9390   36.0450   38.0240 O.2    44  LYS44      -0.2718
     42  CB         3.0420   38.1840   36.3290 C.3    44  LYS44       0.0285
     43  CG         1.8360   39.0740   36.6840 C.3    44  LYS44       0.0035
     44  CD         0.5290   38.5650   36.0610 C.3    44  LYS44       0.0206
     45  CE        -0.3370   37.8200   37.0370 C.3    44  LYS44       0.1093
     46  NZ        -1.7220   37.5890   36.4910 N.3    44  LYS44      -0.1314
     47  N          5.9580   37.0560   36.2920 N.am   45  ALA45      -0.1980
     48  CA         6.8310   35.9170   35.9880 C.3    45  ALA45       0.1597
     49  C          8.0790   35.8330   36.9030 C.2    45  ALA45       0.2287
     50  O          8.7450   34.7950   36.9420 O.2    45  ALA45      -0.2864
     51  CB         7.2380   35.9350   34.5240 C.3    45  ALA45       0.0319
     52  N          6.4050   34.7560   41.2910 N.3    49  ILE49      -0.1245
     53  CA         6.9750   33.4030   41.2920 C.3    49  ILE49       0.1561
     54  C          8.0540   33.2450   42.3920 C.2    49  ILE49       0.2260
     55  O          7.9860   32.3060   43.1870 O.2    49  ILE49      -0.2867
     56  CB         7.5620   33.0010   39.9030 C.3    49  ILE49       0.0252
     57  CG1        6.4620   32.8710   38.8500 C.3    49  ILE49       0.0019
     58  CG2        8.2760   31.6030   39.9950 C.3    49  ILE49       0.0019
     59  CD1        5.5750   31.5920   39.0270 C.3    49  ILE49       0.0001
     60  N         17.1970   35.2330   39.4400 N.3    63  HIS63      -0.1241
     61  CA        16.0680   34.9030   38.5890 C.3    63  HIS63       0.1621
     62  C         15.5620   36.1610   37.8280 C.2    63  HIS63       0.2264
     63  O         15.2540   36.0850   36.6450 O.2    63  HIS63      -0.2867
     64  CB        14.9690   34.3290   39.4610 C.3    63  HIS63       0.0745
     65  CG        13.7580   33.8940   38.7080 C.ar   63  HIS63       0.0817
     66  ND1       12.7450   34.7630   38.3670 N.ar   63  HIS63      -0.2268
     67  CD2       13.3900   32.6780   38.2450 C.ar   63  HIS63       0.1154
     68  CE1       11.8000   34.0940   37.7300 C.ar   63  HIS63       0.1986
     69  NE2       12.1560   32.8220   37.6660 N.ar   63  HIS63      -0.2212
     70  N         13.4130   38.3910   28.2960 N.3    71  PHE71      -0.1241
     71  CA        12.3560   39.2030   27.6740 C.3    71  PHE71       0.1605
     72  C         12.8350   40.3960   26.8980 C.2    71  PHE71       0.2264
     73  O         12.1800   40.7840   25.9580 O.2    71  PHE71      -0.2867
     74  CB        11.2000   39.4890   28.6460 C.3    71  PHE71       0.0534
     75  CG        10.3690   38.2510   28.9170 C.ar   71  PHE71      -0.0203
     76  CD1        9.3880   37.8590   27.9980 C.ar   71  PHE71      -0.0042
     77  CD2       10.6310   37.4360   30.0130 C.ar   71  PHE71      -0.0042
     78  CE1        8.6360   36.6760   28.2040 C.ar   71  PHE71      -0.0003
     79  CE2        9.8980   36.2470   30.2420 C.ar   71  PHE71      -0.0003
     80  CZ         8.9060   35.8570   29.3170 C.ar   71  PHE71      -0.0000
     81  N          4.8790   41.3190   20.2870 N.3    87  PHE87      -0.1241
     82  CA         5.3040   40.3950   21.3380 C.3    87  PHE87       0.1605
     83  C          5.6600   39.0580   20.7170 C.2    87  PHE87       0.2264
     84  O          6.7160   38.4890   21.0320 O.2    87  PHE87      -0.2867
     85  CB         4.2020   40.2560   22.4130 C.3    87  PHE87       0.0534
     86  CG         4.5160   39.3110   23.5680 C.ar   87  PHE87      -0.0203
     87  CD1        5.3310   39.7190   24.6480 C.ar   87  PHE87      -0.0042
     88  CD2        3.9260   38.0420   23.6240 C.ar   87  PHE87      -0.0042
     89  CE1        5.5810   38.8570   25.7370 C.ar   87  PHE87      -0.0003
     90  CE2        4.1690   37.1710   24.7080 C.ar   87  PHE87      -0.0003
     91  CZ         4.9910   37.5850   25.7610 C.ar   87  PHE87      -0.0000
     92  N          9.2340   36.8940   20.2550 N.3    91  TRP91      -0.1241
     93  CA         9.4410   35.4720   20.5980 C.3    91  TRP91       0.1605
     94  C         10.0010   34.6620   19.4120 C.2    91  TRP91       0.2264
     95  O         10.8420   33.7490   19.5770 O.2    91  TRP91      -0.2867
     96  CB         8.1330   34.8390   21.0670 C.3    91  TRP91       0.0550
     97  CG         7.9090   34.8670   22.5420 C.ar   91  TRP91       0.0003
     98  CD1        7.1740   35.7790   23.2470 C.ar   91  TRP91       0.0946
     99  CD2        8.4100   33.9140   23.4990 C.ar   91  TRP91       0.0152
    100  NE1        7.2090   35.4690   24.5950 N.ar   91  TRP91      -0.2442
    101  CE2        7.9560   34.3220   24.7700 C.ar   91  TRP91       0.0810
    102  CE3        9.2080   32.7510   23.3950 C.ar   91  TRP91       0.0012
    103  CZ2        8.2450   33.5940   25.9420 C.ar   91  TRP91       0.0191
    104  CZ3        9.4860   32.0270   24.5370 C.ar   91  TRP91       0.0001
    105  CH2        9.0040   32.4580   25.8100 C.ar   91  TRP91       0.0015
    106  N         17.5040   30.8740   27.8910 N.3   110  ILE110     -0.1245
    107  CA        16.4880   29.9770   28.4680 C.3   110  ILE110      0.1561
    108  C         17.0930   29.0010   29.4930 C.2   110  ILE110      0.2260
    109  O         16.4930   28.6990   30.5220 O.2   110  ILE110     -0.2867
    110  CB        15.6250   29.2570   27.3510 C.3   110  ILE110      0.0252
    111  CG1       14.3260   28.6600   27.9370 C.3   110  ILE110      0.0019
    112  CG2       16.4300   28.2050   26.5530 C.3   110  ILE110      0.0019
    113  CD1       13.2110   28.4730   26.8650 C.3   110  ILE110      0.0001
    114  N         17.7600   30.9190   32.7200 N.3   113  TRP113     -0.1227
    115  CA        16.5130   31.0460   33.4640 C.3   113  TRP113      0.1737
    116  C         16.1700   29.7270   34.1910 C.2   113  TRP113      0.2596
    117  O         15.9110   29.7340   35.3910 O.2   113  TRP113     -0.2718
    118  CB        15.4020   31.5090   32.5060 C.3   113  TRP113      0.0564
    119  CG        14.0440   31.8380   33.1460 C.ar  113  TRP113      0.0003
    120  CD1       13.7290   31.9320   34.4760 C.ar  113  TRP113      0.0946
    121  CD2       12.8570   32.1480   32.4270 C.ar  113  TRP113      0.0152
    122  NE1       12.3720   32.2300   34.6250 N.ar  113  TRP113     -0.2442
    123  CE2       11.8270   32.3860   33.3810 C.ar  113  TRP113      0.0810
    124  CE3       12.5550   32.2410   31.0560 C.ar  113  TRP113      0.0012
    125  CZ2       10.5280   32.7260   33.0070 C.ar  113  TRP113      0.0191
    126  CZ3       11.2310   32.5550   30.6850 C.ar  113  TRP113      0.0001
    127  CH2       10.2510   32.7960   31.6640 C.ar  113  TRP113      0.0015
    128  N         16.1990   28.6090   33.4650 N.am  114  GLY114     -0.1957
    129  CA        16.0400   27.2970   34.0530 C.3   114  GLY114      0.1869
    130  C         16.9560   27.0300   35.2600 C.2   114  GLY114      0.2309
    131  O         16.5010   26.4730   36.2470 O.2   114  GLY114     -0.2863
    132  N         15.5310   29.0090   38.3310 N.3   117  VAL117     -0.1245
    133  CA        14.3480   28.3400   38.8610 C.3   117  VAL117      0.1561
    134  C         14.7340   27.0160   39.5590 C.2   117  VAL117      0.2260
    135  O         14.2750   26.7240   40.6590 O.2   117  VAL117     -0.2867
    136  CB        13.2780   28.1300   37.7400 C.3   117  VAL117      0.0252
    137  CG1       12.1410   27.2230   38.2140 C.3   117  VAL117      0.0019
    138  CG2       12.6940   29.4950   37.2530 C.3   117  VAL117      0.0019
    139  N         13.9140   25.5610   43.5540 N.3   121  PHE121     -0.1241
    140  CA        13.1710   24.3360   43.8430 C.3   121  PHE121      0.1605
    141  C         14.0200   23.3390   44.6480 C.2   121  PHE121      0.2264
    142  O         13.5050   22.6100   45.5060 O.2   121  PHE121     -0.2867
    143  CB        12.6900   23.6620   42.5470 C.3   121  PHE121      0.0534
    144  CG        11.2900   24.0500   42.1040 C.ar  121  PHE121     -0.0203
    145  CD1       11.0950   25.0200   41.1340 C.ar  121  PHE121     -0.0042
    146  CD2       10.1700   23.3780   42.6150 C.ar  121  PHE121     -0.0042
    147  CE1        9.8130   25.3650   40.7060 C.ar  121  PHE121     -0.0003
    148  CE2        8.8760   23.7030   42.1880 C.ar  121  PHE121     -0.0003
    149  CZ         8.6880   24.6860   41.2320 C.ar  121  PHE121     -0.0000
    150  N          8.9590   19.1800   44.4590 N.3   134  TRP134     -0.1241
    151  CA         8.1590   19.6100   43.3280 C.3   134  TRP134      0.1605
    152  C          6.7120   19.8710   43.7450 C.2   134  TRP134      0.2264
    153  O          6.1120   20.8970   43.3930 O.2   134  TRP134     -0.2867
    154  CB         8.2020   18.5310   42.2440 C.3   134  TRP134      0.0550
    155  CG         7.4360   18.8830   41.0240 C.ar  134  TRP134      0.0003
    156  CD1        6.2290   18.3810   40.6360 C.ar  134  TRP134      0.0946
    157  CD2        7.8260   19.8330   40.0220 C.ar  134  TRP134      0.0152
    158  NE1        5.8370   18.9610   39.4570 N.ar  134  TRP134     -0.2442
    159  CE2        6.8020   19.8530   39.0520 C.ar  134  TRP134      0.0810
    160  CE3        8.9400   20.6820   39.8600 C.ar  134  TRP134      0.0012
    161  CZ2        6.8570   20.6780   37.9200 C.ar  134  TRP134      0.0191
    162  CZ3        8.9990   21.5010   38.7380 C.ar  134  TRP134      0.0001
    163  CH2        7.9570   21.4900   37.7770 C.ar  134  TRP134      0.0015
    164  N          2.9050   27.9960   43.3310 N.3   141  SER141     -0.1202
    165  CA         3.5790   28.9460   42.4540 C.3   141  SER141      0.2020
    166  C          2.8020   29.2030   41.1670 C.2   141  SER141      0.2619
    167  O          3.0680   30.1770   40.4550 O.2   141  SER141     -0.2717
    168  CB         4.9690   28.4200   42.1180 C.3   141  SER141      0.2103
    169  OG         4.8570   27.3190   41.2370 O.3   141  SER141     -0.2182
    170  N          1.8580   28.3200   40.8570 N.am  142  GLY142     -0.1942
    171  CA         1.0010   28.4940   39.6870 C.3   142  GLY142      0.2014
    172  C          1.4100   27.6600   38.4860 C.2   142  GLY142      0.2638
    173  O          0.7580   27.7200   37.4380 O.2   142  GLY142     -0.2714
    174  N          2.4810   26.8860   38.6440 N.am  143  ILE143     -0.1977
    175  CA         3.0100   26.0180   37.5780 C.3   143  ILE143      0.1596
    176  C          2.1340   24.7810   37.2390 C.2   143  ILE143      0.2287
    177  O          2.0080   24.4250   36.0560 O.2   143  ILE143     -0.2864
    178  CB         4.5050   25.6410   37.8340 C.3   143  ILE143      0.0276
    179  CG1        5.4350   26.7800   37.3900 C.3   143  ILE143      0.0022
    180  CG2        4.9130   24.3670   37.0770 C.3   143  ILE143      0.0022
    181  CD1        6.0070   27.6540   38.4980 C.3   143  ILE143      0.0001
    182  N         14.5450   19.4570   33.1920 N.3   170  MET170     -0.1230
    183  CA        13.6300   20.5770   33.3360 C.3   170  MET170      0.1702
    184  C         13.7510   21.6090   32.2250 C.2   170  MET170      0.2593
    185  O         12.7330   21.9680   31.6260 O.2   170  MET170     -0.2718
    186  CB        13.8240   21.2580   34.6800 C.3   170  MET170      0.0401
    187  CG        12.8020   22.3690   34.9450 C.3   170  MET170      0.0596
    188  SD        12.9710   22.9730   36.6170 S.3   170  MET170     -0.1393
    189  CE        14.2130   24.2130   36.2970 C.3   170  MET170      0.0692
    190  N         14.9850   22.0530   31.9420 N.am  171  THR171     -0.1953
    191  CA        15.2440   23.0580   30.9130 C.3   171  THR171      0.1897
    192  C         14.8270   22.6090   29.5050 C.2   171  THR171      0.2313
    193  O         14.2660   23.3880   28.6910 O.2   171  THR171     -0.2863
    194  CB        16.7460   23.6020   30.9630 C.3   171  THR171      0.1794
    195  OG1       17.6880   22.5210   30.8900 O.3   171  THR171     -0.2208
    196  CG2       17.0110   24.3060   32.2730 C.3   171  THR171      0.0378
    197  N         11.0440   22.8100   29.3130 N.3   174  HIS174     -0.1241
    198  CA        10.6810   24.2310   29.2130 C.3   174  HIS174      0.1621
    199  C         10.9370   24.7500   27.8250 C.2   174  HIS174      0.2264
    200  O         10.0910   25.4320   27.2440 O.2   174  HIS174     -0.2867
    201  CB        11.4760   25.0620   30.2620 C.3   174  HIS174      0.0745
    202  CG        10.9400   26.4350   30.4980 C.ar  174  HIS174      0.0817
    203  ND1       11.6480   27.5720   30.1700 N.ar  174  HIS174     -0.2268
    204  CD2        9.7970   26.8620   31.0980 C.ar  174  HIS174      0.1154
    205  CE1       10.9500   28.6440   30.5130 C.ar  174  HIS174      0.1986
    206  NE2        9.8410   28.2410   31.1060 N.ar  174  HIS174     -0.2212
    207  N          7.9300   26.1030   24.9560 N.3   178  TRP178     -0.1241
    208  CA         7.8160   27.5180   24.5570 C.3   178  TRP178      0.1605
    209  C          8.4750   27.9010   23.2120 C.2   178  TRP178      0.2264
    210  O          7.9780   28.7830   22.5010 O.2   178  TRP178     -0.2867
    211  CB         8.3900   28.4080   25.6660 C.3   178  TRP178      0.0550
    212  CG         7.6380   28.2670   26.9460 C.ar  178  TRP178      0.0003
    213  CD1        8.1300   27.8310   28.1280 C.ar  178  TRP178      0.0946
    214  CD2        6.2420   28.5630   27.1700 C.ar  178  TRP178      0.0152
    215  NE1        7.1480   27.8720   29.0900 N.ar  178  TRP178     -0.2442
    216  CE2        5.9770   28.3040   28.5230 C.ar  178  TRP178      0.0810
    217  CE3        5.1960   29.0510   26.3480 C.ar  178  TRP178      0.0012
    218  CZ2        4.6920   28.4900   29.1010 C.ar  178  TRP178      0.0191
    219  CZ3        3.9170   29.2390   26.9190 C.ar  178  TRP178      0.0001
    220  CH2        3.6790   28.9570   28.2740 C.ar  178  TRP178      0.0015
    221  N          3.9450   19.6340   30.2380 N.3   188  LEU188     -0.1231
    222  CA         4.7780   20.3570   31.2420 C.3   188  LEU188      0.1693
    223  C          3.9850   21.1630   32.3000 C.2   188  LEU188      0.2592
    224  O          4.4090   21.2750   33.4600 O.2   188  LEU188     -0.2718
    225  CB         5.8470   21.2240   30.5450 C.3   188  LEU188      0.0284
    226  CG         6.6870   22.2380   31.3640 C.3   188  LEU188      0.0019
    227  CD1        7.5550   21.5650   32.4010 C.3   188  LEU188      0.0001
    228  CD2        7.5520   23.0980   30.4690 C.3   188  LEU188      0.0001
    229  N          2.8630   21.7330   31.8760 N.am  189  TYR189     -0.1976
    230  CA         2.0250   22.5480   32.7170 C.3   189  TYR189      0.1639
    231  C          0.6470   21.8630   32.9270 C.2   189  TYR189      0.2290
    232  O         -0.3600   22.5320   33.2140 O.2   189  TYR189     -0.2864
    233  CB         1.8680   23.9380   32.0970 C.3   189  TYR189      0.0560
    234  CG         3.1790   24.7360   32.0370 C.ar  189  TYR189     -0.0198
    235  CD1        3.9010   24.8320   30.8500 C.ar  189  TYR189     -0.0009
    236  CD2        3.6770   25.3860   33.1690 C.ar  189  TYR189     -0.0009
    237  CE1        5.0880   25.5680   30.7820 C.ar  189  TYR189      0.0417
    238  CE2        4.8850   26.1150   33.1220 C.ar  189  TYR189      0.0417
    239  CZ         5.5750   26.1920   31.9160 C.ar  189  TYR189      0.1957
    240  OH         6.7270   26.9110   31.8440 O.3   189  TYR189     -0.2866
@<TRIPOS>BOND
     1    94    95    2
     2    94    93    1
     3    92    93    1
     4    81    82    1
     5    93    96    1
     6    83    84    2
     7    83    82    1
     8    96    97    1
     9    82    85    1
    10     8    10   ar
    11     8     6   ar
    12    85    86    1
    13   210   209    2
    14    97    98   ar
    15    97    99   ar
    16    10     9   ar
    17     5     6    1
    18     5     2    1
    19     6     7   ar
    20   209   208    1
    21    98   100   ar
    22   102    99   ar
    23   102   104   ar
    24    99   101   ar
    25    86    88   ar
    26    86    87   ar
    27    88    90   ar
    28     1     2    1
    29     9     7   ar
    30     2     3    1
    31     3     4    2
    32   104   105   ar
    33   208   207    1
    34   208   211    1
    35   100   101   ar
    36    87    89   ar
    37    90    91   ar
    38   101   103   ar
    39   211   212    1
    40    89    91   ar
    41   105   103   ar
    42    73    72    2
    43   217   219   ar
    44   217   214   ar
    45   112   110    1
    46   113   111    1
    47    72    71    1
    48   219   220   ar
    49   212   214   ar
    50   212   213   ar
    51   214   216   ar
    52   200   199    2
    53   110   111    1
    54   110   107    1
    55    71    70    1
    56    71    74    1
    57    11    12    1
    58   199   198    1
    59   106   107    1
    60    76    78   ar
    61    76    75   ar
    62   213   215   ar
    63    78    80   ar
    64   220   218   ar
    65    15    12    1
    66    15    16    1
    67   107   108    1
    68   216   215   ar
    69   216   218   ar
    70    13    12    1
    71    13    14    2
    72    74    75    1
    73   193   192    2
    74    16    17    1
    75    75    77   ar
    76   198   197    1
    77   198   201    1
    78    80    79   ar
    79   108   109    2
    80   192   191    1
    81    77    79   ar
    82   203   202   ar
    83   203   205   ar
    84   221   222    1
    85   201   202    1
    86   228   226    1
    87   202   204   ar
    88   205   206   ar
    89    17    18    1
    90    19    20    1
    91   225   222    1
    92   225   226    1
    93   126   124   ar
    94   126   127   ar
    95    36    35    1
    96   237   235   ar
    97   237   239   ar
    98   235   234   ar
    99   195   194    1
   100   191   194    1
   101   191   190    1
   102   194   196    1
   103   124   121   ar
   104   204   206   ar
   105   222   223    1
   106   226   227    1
   107    34    35    1
   108    34    31    1
   109   185   184    2
   110   127   125   ar
   111    35    37    1
   112    30    31    1
   113    30    21   am
   114   240   239    1
   115   229   223   am
   116   229   230    1
   117   239   238   ar
   118    20    23    1
   119    20    21    1
   120   190   184   am
   121   234   233    1
   122   234   236   ar
   123   233   230    1
   124    23    24    1
   125    32    31    1
   126    32    33    2
   127   184   183    1
   128   223   224    2
   129   121   119   ar
   130   121   123   ar
   131   118   119    1
   132   118   115    1
   133    21    22    2
   134   230   231    1
   135   114   115    1
   136   231   232    2
   137   125   123   ar
   138   238   236   ar
   139   119   120   ar
   140   182   183    1
   141   183   186    1
   142   123   122   ar
   143   115   116    1
   144   128   129    1
   145   128   116   am
   146    24    26   ar
   147    24    25   ar
   148    26    28   ar
   149   129   130    1
   150   116   117    2
   151   120   122   ar
   152    25    27   ar
   153    51    48    1
   154   186   187    1
   155   187   188    1
   156    28    29   ar
   157   130   131    2
   158    27    29   ar
   159    48    47    1
   160    48    49    1
   161   177   176    2
   162    44    43    1
   163    44    45    1
   164    47    40   am
   165   189   188    1
   166    42    43    1
   167    42    39    1
   168    46    45    1
   169    63    62    2
   170    49    50    2
   171   180   178    1
   172   176   175    1
   173   138   136    1
   174    40    39    1
   175    40    41    2
   176    38    39    1
   177   179   178    1
   178   179   181    1
   179   173   172    2
   180   175   178    1
   181   175   174    1
   182    69    68   ar
   183    69    67   ar
   184    68    66   ar
   185   136   137    1
   186   136   133    1
   187   163   161   ar
   188   163   162   ar
   189    62    61    1
   190   161   159   ar
   191    67    65   ar
   192   132   133    1
   193    66    65   ar
   194   172   174   am
   195   172   171    1
   196    61    60    1
   197    61    64    1
   198    65    64    1
   199   162   160   ar
   200    57    59    1
   201    57    56    1
   202   133   134    1
   203   159   158   ar
   204   159   157   ar
   205   158   156   ar
   206   134   135    2
   207   171   170    1
   208   160   157   ar
   209    56    58    1
   210    56    53    1
   211   157   155   ar
   212   167   166    2
   213   156   155   ar
   214   147   145   ar
   215   147   149   ar
   216   170   166   am
   217   155   154    1
   218   145   144   ar
   219   166   165    1
   220   149   148   ar
   221   169   168    1
   222    52    53    1
   223    53    54    1
   224   144   143    1
   225   144   146   ar
   226   168   165    1
   227   148   146   ar
   228   154   151    1
   229    54    55    2
   230   165   164    1
   231   143   140    1
   232   151   152    1
   233   151   150    1
   234   153   152    2
   235   139   140    1
   236   140   141    1
   237   141   142    2
