@<TRIPOS>MOLECULE
tmp/2f94A00.pdb
 213 197 0 0 0
SMALL
GASTEIGER

@<TRIPOS>ATOM
      1  N          2.6350   80.6480   20.3690 N.3    53  ARG53      -0.1245
      2  CA         2.7220   82.0610   20.7260 C.3    53  ARG53       0.1563
      3  C          1.9980   82.8960   19.6960 C.2    53  ARG53       0.2260
      4  O          1.2700   83.8070   20.0420 O.2    53  ARG53      -0.2867
      5  CB         4.1790   82.5160   20.8230 C.3    53  ARG53       0.0307
      6  CG         4.9340   81.9440   22.0070 C.3    53  ARG53       0.0489
      7  CD         6.4330   82.2050   21.8530 C.3    53  ARG53       0.2205
      8  NE         7.2070   81.5110   22.8730 N.pl3  53  ARG53      -0.0865
      9  CZ         7.5550   80.2300   22.8090 C.cat  53  ARG53       0.5346
     10  NH1        7.2020   79.4910   21.7660 N.pl3  53  ARG53       0.1354
     11  NH2        8.2410   79.6840   23.8040 N.pl3  53  ARG53       0.1354
     12  N         10.4810   84.6490   18.2500 N.3    89  GLN89      -0.1245
     13  CA        10.8740   83.3410   18.7550 C.3    89  GLN89       0.1566
     14  C         11.9880   82.7550   17.8710 C.2    89  GLN89       0.2260
     15  O         12.9770   82.2370   18.3610 O.2    89  GLN89      -0.2867
     16  CB         9.6480   82.4150   18.7700 C.3    89  GLN89       0.0367
     17  CG         9.9590   80.9340   18.9420 C.3    89  GLN89       0.0905
     18  CD        10.2590   80.5600   20.3860 C.2    89  GLN89       0.2608
     19  OE1       10.8990   81.3090   21.1200 O.2    89  GLN89      -0.2717
     20  NE2        9.7960   79.3950   20.7940 N.am   89  GLN89      -0.0878
     21  N         15.3050   84.3720   18.6290 N.3    92  PHE92      -0.1227
     22  CA        15.8450   83.8980   19.8980 C.3    92  PHE92       0.1736
     23  C         16.4210   82.4960   19.7710 C.2    92  PHE92       0.2595
     24  O         17.5110   82.2200   20.2920 O.2    92  PHE92      -0.2718
     25  CB        14.7680   83.8870   20.9880 C.3    92  PHE92       0.0547
     26  CG        14.3010   85.2630   21.4040 C.ar   92  PHE92      -0.0202
     27  CD1       15.1520   86.3570   21.3370 C.ar   92  PHE92      -0.0042
     28  CD2       13.0060   85.4570   21.8740 C.ar   92  PHE92      -0.0042
     29  CE1       14.7260   87.6200   21.7300 C.ar   92  PHE92      -0.0003
     30  CE2       12.5730   86.7260   22.2720 C.ar   92  PHE92      -0.0003
     31  CZ        13.4460   87.8070   22.1930 C.ar   92  PHE92      -0.0000
     32  N         15.7060   81.6100   19.0740 N.am   93  LEU93      -0.1980
     33  CA        16.0960   80.2050   19.0600 C.3    93  LEU93       0.1596
     34  C         17.3610   79.9690   18.2470 C.2    93  LEU93       0.2287
     35  O         18.2040   79.1630   18.6280 O.2    93  LEU93      -0.2864
     36  CB        14.9570   79.3190   18.5180 C.3    93  LEU93       0.0297
     37  CG        13.6500   79.2300   19.3250 C.3    93  LEU93       0.0022
     38  CD1       12.8060   78.0630   18.7760 C.3    93  LEU93       0.0001
     39  CD2       13.9380   79.0130   20.8230 C.3    93  LEU93       0.0001
     40  N         19.8040   82.0130   17.8570 N.3    95  ALA95      -0.1231
     41  CA        20.9180   82.5380   18.6420 C.3    95  ALA95       0.1694
     42  C         21.1700   81.6610   19.8640 C.2    95  ALA95       0.2592
     43  O         22.3210   81.3640   20.1930 O.2    95  ALA95      -0.2718
     44  CB        20.6270   83.9800   19.0730 C.3    95  ALA95       0.0304
     45  N         20.0940   81.2400   20.5270 N.am   96  ASP96      -0.1960
     46  CA        20.2150   80.3960   21.7120 C.3    96  ASP96       0.1840
     47  C         20.8450   79.0360   21.3900 C.2    96  ASP96       0.2622
     48  O         21.6090   78.5090   22.1870 O.2    96  ASP96      -0.2715
     49  CB        18.8350   80.2020   22.3600 C.3    96  ASP96       0.1450
     50  CG        18.8730   79.2580   23.5560 C.2    96  ASP96       0.3671
     51  OD1       18.5350   78.0650   23.3780 O.co2  96  ASP96      -0.2456
     52  OD2       19.2360   79.7060   24.6690 O.co2  96  ASP96      -0.2456
     53  N         20.5360   78.4800   20.2160 N.am   97  ASP97      -0.1971
     54  CA        21.0910   77.1920   19.8110 C.3    97  ASP97       0.1709
     55  C         22.6030   77.2450   19.6040 C.2    97  ASP97       0.2293
     56  O         23.3120   76.3020   19.9630 O.2    97  ASP97      -0.2864
     57  CB        20.4040   76.6790   18.5290 C.3    97  ASP97       0.1436
     58  CG        19.0420   76.0360   18.8150 C.2    97  ASP97       0.3671
     59  OD1       18.7650   75.7470   20.0060 O.co2  97  ASP97      -0.2456
     60  OD2       18.2610   75.8220   17.8610 O.co2  97  ASP97      -0.2456
     61  N         24.4740   79.3980   21.2660 N.3    99  MET99      -0.1230
     62  CA        25.0430   79.6960   22.5760 C.3    99  MET99       0.1702
     63  C         24.9790   78.5210   23.5440 C.2    99  MET99       0.2592
     64  O         25.8000   78.4110   24.4670 O.2    99  MET99      -0.2718
     65  CB        24.3450   80.9100   23.1770 C.3    99  MET99       0.0401
     66  CG        24.7870   82.2300   22.5470 C.3    99  MET99       0.0596
     67  SD        24.0310   83.6810   23.3410 S.3    99  MET99      -0.1393
     68  CE        22.4970   83.7840   22.5160 C.3    99  MET99       0.0692
     69  N         24.0070   77.6440   23.3270 N.am  100  ASP100     -0.1974
     70  CA        23.9020   76.4100   24.0890 C.3   100  ASP100      0.1709
     71  C         24.5830   75.2080   23.4190 C.2   100  ASP100      0.2293
     72  O         24.5400   74.0990   23.9500 O.2   100  ASP100     -0.2864
     73  CB        22.4150   76.1110   24.3680 C.3   100  ASP100      0.1436
     74  CG        21.7600   77.1860   25.2560 C.2   100  ASP100      0.3671
     75  OD1       22.5000   78.0060   25.8570 O.co2 100  ASP100     -0.2456
     76  OD2       20.5140   77.2160   25.3480 O.co2 100  ASP100     -0.2456
     77  N         23.6060   73.4920   20.9010 N.3   102  SER102     -0.1217
     78  CA        22.6000   72.4720   20.6710 C.3   102  SER102      0.1889
     79  C         22.7920   71.8110   19.3060 C.2   102  SER102      0.2288
     80  O         23.4820   72.3480   18.4410 O.2   102  SER102     -0.2866
     81  CB        21.2070   73.0920   20.7860 C.3   102  SER102      0.2089
     82  OG        20.9110   73.3690   22.1480 O.3   102  SER102     -0.2183
     83  N         16.7680   71.0390   16.5190 N.3   105  ARG105     -0.1245
     84  CA        15.6820   71.9430   16.8850 C.3   105  ARG105      0.1563
     85  C         14.4900   71.6180   15.9860 C.2   105  ARG105      0.2260
     86  O         14.6480   71.4600   14.7780 O.2   105  ARG105     -0.2867
     87  CB        16.1320   73.3970   16.6740 C.3   105  ARG105      0.0307
     88  CG        14.9980   74.4420   16.7190 C.3   105  ARG105      0.0489
     89  CD        14.5050   74.6970   18.1280 C.3   105  ARG105      0.2205
     90  NE        15.5210   75.3000   18.9800 N.pl3 105  ARG105     -0.0865
     91  CZ        15.3360   75.5470   20.2780 C.cat 105  ARG105      0.5346
     92  NH1       14.1770   75.2350   20.8490 N.pl3 105  ARG105      0.1354
     93  NH2       16.2870   76.1190   20.9980 N.pl3 105  ARG105      0.1354
     94  N         13.9370   89.7280   27.4580 N.3   160  THR160     -0.1203
     95  CA        14.3510   88.3720   27.1670 C.3   160  THR160      0.1994
     96  C         15.8820   88.3090   27.1570 C.2   160  THR160      0.2617
     97  O         16.4740   87.3440   27.6390 O.2   160  THR160     -0.2717
     98  CB        13.8070   87.8850   25.7890 C.3   160  THR160      0.1784
     99  OG1       12.3740   87.9950   25.7620 O.3   160  THR160     -0.2211
    100  CG2       14.1820   86.4260   25.5710 C.3   160  THR160      0.0376
    101  N         16.5210   89.3460   26.6310 N.am  161  GLU161     -0.1979
    102  CA        17.9740   89.3400   26.5140 C.3   161  GLU161      0.1602
    103  C         18.6400   89.5250   27.8710 C.2   161  GLU161      0.2287
    104  O         19.7200   88.9870   28.1210 O.2   161  GLU161     -0.2864
    105  CB        18.4320   90.4230   25.5360 C.3   161  GLU161      0.0415
    106  CG        18.0950   90.0870   24.0810 C.3   161  GLU161      0.1163
    107  CD        18.0330   91.3150   23.1940 C.2   161  GLU161      0.3649
    108  OE1       18.4230   92.4110   23.6560 O.co2 161  GLU161     -0.2457
    109  OE2       17.5960   91.1890   22.0310 O.co2 161  GLU161     -0.2457
    110  N         18.4210   86.0800   29.1520 N.3   164  GLN164     -0.1245
    111  CA        19.4590   85.2480   28.5510 C.3   164  GLN164      0.1566
    112  C         20.8170   85.5200   29.2110 C.2   164  GLN164      0.2260
    113  O         21.5840   84.5940   29.5000 O.2   164  GLN164     -0.2867
    114  CB        19.5560   85.5160   27.0420 C.3   164  GLN164      0.0367
    115  CG        20.5850   84.6400   26.3280 C.3   164  GLN164      0.0905
    116  CD        20.1450   83.1830   26.1860 C.2   164  GLN164      0.2608
    117  OE1       19.1170   82.7630   26.7380 O.2   164  GLN164     -0.2717
    118  NE2       20.9210   82.4080   25.4320 N.am  164  GLN164     -0.0878
    119  N         20.8780   83.7560   32.4040 N.3   167  ASP167     -0.1239
    120  CA        21.0290   82.3410   32.0920 C.3   167  ASP167      0.1674
    121  C         22.5190   82.0000   31.8670 C.2   167  ASP167      0.2266
    122  O         23.0490   81.0220   32.4180 O.2   167  ASP167     -0.2867
    123  CB        20.1810   82.0360   30.8500 C.3   167  ASP167      0.1410
    124  CG        20.3660   80.6270   30.3280 C.2   167  ASP167      0.3668
    125  OD1       19.5290   79.7620   30.6560 O.co2 167  ASP167     -0.2456
    126  OD2       21.3360   80.3930   29.5680 O.co2 167  ASP167     -0.2456
    127  N         13.7140   85.4590   30.8230 N.3   193  LYS193     -0.1231
    128  CA        14.1390   84.8300   29.5650 C.3   193  LYS193      0.1693
    129  C         13.0030   84.1570   28.8120 C.2   193  LYS193      0.2592
    130  O         13.1100   83.9050   27.6110 O.2   193  LYS193     -0.2718
    131  CB        15.2800   83.8150   29.8130 C.3   193  LYS193      0.0285
    132  CG        14.8570   82.4110   30.2590 C.3   193  LYS193      0.0035
    133  CD        15.9870   81.4140   30.0300 C.3   193  LYS193      0.0206
    134  CE        15.6090   80.0020   30.5080 C.3   193  LYS193      0.1093
    135  NZ        16.6720   78.9870   30.2080 N.3   193  LYS193     -0.1314
    136  N         11.9040   83.8850   29.5040 N.am  194  THR194     -0.1953
    137  CA        10.8110   83.1130   28.9210 C.3   194  THR194      0.1897
    138  C          9.4580   83.8010   29.0910 C.2   194  THR194      0.2313
    139  O          8.6920   83.9210   28.1440 O.2   194  THR194     -0.2863
    140  CB        10.7370   81.7160   29.5680 C.3   194  THR194      0.1794
    141  OG1       11.9470   81.0140   29.2840 O.3   194  THR194     -0.2208
    142  CG2        9.5360   80.9120   29.0480 C.3   194  THR194      0.0378
    143  N          8.1920   87.2750   26.8960 N.3   197  TYR197     -0.1241
    144  CA         7.9080   87.1580   25.4620 C.3   197  TYR197      0.1605
    145  C          6.9930   85.9870   25.1020 C.2   197  TYR197      0.2264
    146  O          6.3230   86.0280   24.0670 O.2   197  TYR197     -0.2867
    147  CB         9.2000   87.0610   24.6340 C.3   197  TYR197      0.0534
    148  CG         9.6950   85.6480   24.3620 C.ar  197  TYR197     -0.0201
    149  CD1       10.5100   84.9910   25.2770 C.ar  197  TYR197     -0.0009
    150  CD2        9.3860   84.9900   23.1680 C.ar  197  TYR197     -0.0009
    151  CE1       11.0110   83.7270   25.0180 C.ar  197  TYR197      0.0417
    152  CE2        9.8810   83.7260   22.8990 C.ar  197  TYR197      0.0417
    153  CZ        10.6980   83.0960   23.8300 C.ar  197  TYR197      0.1957
    154  OH        11.2230   81.8420   23.5800 O.3   197  TYR197     -0.2866
    155  N          8.6050   77.2740   31.6720 N.3   233  GLN233     -0.1245
    156  CA        10.0460   77.0890   31.5790 C.3   233  GLN233      0.1566
    157  C         10.5030   75.9330   32.4610 C.2   233  GLN233      0.2260
    158  O         11.4180   75.2160   32.1060 O.2   233  GLN233     -0.2867
    159  CB        10.7910   78.3730   31.9630 C.3   233  GLN233      0.0367
    160  CG        12.3040   78.2770   31.7270 C.3   233  GLN233      0.0905
    161  CD        12.6390   77.8870   30.2950 C.2   233  GLN233      0.2608
    162  OE1       12.0740   78.4290   29.3500 O.2   233  GLN233     -0.2717
    163  NE2       13.5500   76.9390   30.1330 N.am  233  GLN233     -0.0878
    164  N          9.8680   73.1310   30.3700 N.3   236  ASP236     -0.1225
    165  CA        10.9310   73.0510   29.3800 C.3   236  ASP236      0.1805
    166  C         12.1800   72.3930   29.9850 C.2   236  ASP236      0.2597
    167  O         12.8000   71.5450   29.3550 O.2   236  ASP236     -0.2718
    168  CB        11.2840   74.4470   28.8460 C.3   236  ASP236      0.1424
    169  CG        12.3350   74.3960   27.7370 C.2   236  ASP236      0.3668
    170  OD1       12.0460   73.7930   26.6870 O.co2 236  ASP236     -0.2456
    171  OD2       13.4450   74.9480   27.9070 O.co2 236  ASP236     -0.2456
    172  N         12.5350   72.7730   31.2100 N.am  237  ASP237     -0.1974
    173  CA        13.6780   72.1600   31.8930 C.3   237  ASP237      0.1709
    174  C         13.4730   70.6620   32.1510 C.2   237  ASP237      0.2293
    175  O         14.3880   69.8600   31.9660 O.2   237  ASP237     -0.2864
    176  CB        13.9430   72.8640   33.2260 C.3   237  ASP237      0.1436
    177  CG        14.4050   74.3000   33.0500 C.2   237  ASP237      0.3671
    178  OD1       14.7370   74.6940   31.9150 O.co2 237  ASP237     -0.2456
    179  OD2       14.4490   75.0360   34.0550 O.co2 237  ASP237     -0.2456
    180  N         13.8120   68.7330   28.8720 N.3   240  ASP240     -0.1239
    181  CA        15.1620   68.7570   28.3420 C.3   240  ASP240      0.1674
    182  C         15.8380   67.4180   28.6400 C.2   240  ASP240      0.2266
    183  O         16.6350   66.9260   27.8370 O.2   240  ASP240     -0.2867
    184  CB        15.9580   69.9020   28.9890 C.3   240  ASP240      0.1410
    185  CG        17.2230   70.2580   28.2130 C.2   240  ASP240      0.3668
    186  OD1       18.3360   69.9240   28.6690 O.co2 240  ASP240     -0.2456
    187  OD2       17.1090   70.8790   27.1440 O.co2 240  ASP240     -0.2456
    188  N         14.0390   68.0030   19.8760 N.3   250  LYS250     -0.1245
    189  CA        15.3810   68.4910   20.1670 C.3   250  LYS250      0.1561
    190  C         16.0590   67.7340   21.2790 C.2   250  LYS250      0.2260
    191  O         15.4070   67.1490   22.1460 O.2   250  LYS250     -0.2867
    192  CB        15.3410   69.9730   20.5320 C.3   250  LYS250      0.0271
    193  CG        14.6030   70.2470   21.8290 C.3   250  LYS250      0.0035
    194  CD        14.3330   71.7380   22.0090 C.3   250  LYS250      0.0206
    195  CE        14.3510   72.1030   23.4950 C.3   250  LYS250      0.1093
    196  NZ        12.9710   72.3110   23.9940 N.3   250  LYS250     -0.1314
    197  N         21.1010   70.8440   28.9440 N.3   254  ASP254     -0.1239
    198  CA        21.1840   71.6380   30.1690 C.3   254  ASP254      0.1674
    199  C         22.2820   71.1550   31.1090 C.2   254  ASP254      0.2266
    200  O         23.0040   71.9720   31.6850 O.2   254  ASP254     -0.2867
    201  CB        19.8470   71.6520   30.9050 C.3   254  ASP254      0.1410
    202  CG        18.8290   72.5540   30.2470 C.2   254  ASP254      0.3668
    203  OD1       19.2060   73.3670   29.3600 O.co2 254  ASP254     -0.2456
    204  OD2       17.6360   72.4530   30.6180 O.co2 254  ASP254     -0.2456
    205  N         23.6910   74.3460   33.2990 N.3   259  LYS259     -0.1245
    206  CA        22.6030   75.3130   33.4470 C.3   259  LYS259      0.1561
    207  C         21.9120   75.2460   34.8030 C.2   259  LYS259      0.2260
    208  O         21.7910   74.1730   35.4090 O.2   259  LYS259     -0.2867
    209  CB        21.5630   75.1120   32.3440 C.3   259  LYS259      0.0271
    210  CG        22.0740   75.4920   30.9480 C.3   259  LYS259      0.0035
    211  CD        22.3530   76.9810   30.8650 C.3   259  LYS259      0.0206
    212  CE        23.2110   77.3300   29.6720 C.3   259  LYS259      0.1093
    213  NZ        22.5500   76.9140   28.4010 N.3   259  LYS259     -0.1314
@<TRIPOS>BOND
     1    86    85    2
     2    85    84    1
     3    83    84    1
     4    87    88    1
     5    87    84    1
     6    88    89    1
     7    40    41    1
     8    60    58   ar
     9    14    15    2
    10    14    13    1
    11    89    90    1
    12    34    35    2
    13    34    33    1
    14    12    13    1
    15    80    79    2
    16    36    33    1
    17    36    37    1
    18    57    58    1
    19    57    54    1
    20    21    22    1
    21    41    44    1
    22    41    42    1
    23    13    16    1
    24    16    17    1
    25    38    37    1
    26    58    59   ar
    27    17    18    1
    28    90    91    2
    29    33    32    1
    30    32    23   am
    31    79    78    1
    32    37    39    1
    33    55    54    1
    34    55    56    2
    35     3     4    2
    36     3     2    1
    37    23    22    1
    38    23    24    2
    39    54    53    1
    40    42    43    2
    41    42    45   am
    42   188   189    1
    43    22    25    1
    44   189   192    1
    45   189   190    1
    46    53    47   am
    47    91    92    1
    48    91    93    1
    49     1     2    1
    50    18    20   am
    51    18    19    2
    52    45    46    1
    53   192   193    1
    54    78    81    1
    55    78    77    1
    56     2     5    1
    57    81    82    1
    58     5     6    1
    59    25    26    1
    60    61    62    1
    61   190   191    2
    62    27    26   ar
    63    27    29   ar
    64    47    46    1
    65    47    48    2
    66    26    28   ar
    67    46    49    1
    68    29    31   ar
    69    10     9    1
    70   193   194    1
    71     7     6    1
    72     7     8    1
    73    28    30   ar
    74   194   195    1
    75   109   107   ar
    76    31    30   ar
    77    49    50    1
    78    68    67    1
    79    66    65    1
    80    66    67    1
    81    62    65    1
    82    62    63    1
    83     9     8    2
    84     9    11    1
    85   152   150   ar
    86   152   153   ar
    87   150   148   ar
    88   107   108   ar
    89   107   106    1
    90    69    63   am
    91    69    70    1
    92    51    50   ar
    93    71    72    2
    94    71    70    1
    95   195   196    1
    96    63    64    2
    97    50    52   ar
    98   154   153    1
    99   153   151   ar
   100   146   145    2
   101   106   105    1
   102    70    73    1
   103   148   147    1
   104   148   149   ar
   105    73    74    1
   106   147   144    1
   107   151   149   ar
   108   145   144    1
   109    74    76   ar
   110    74    75   ar
   111   118   116   am
   112   144   143    1
   113   105   102    1
   114   100    98    1
   115    99    98    1
   116    98    95    1
   117   116   115    1
   118   116   117    2
   119   115   114    1
   120   102   101    1
   121   102   103    1
   122   101    96   am
   123   170   169   ar
   124   114   111    1
   125   187   185   ar
   126    96    95    1
   127    96    97    2
   128    95    94    1
   129   130   129    2
   130   169   171   ar
   131   169   168    1
   132   183   182    2
   133   103   104    2
   134   139   138    2
   135   185   186   ar
   136   185   184    1
   137   181   182    1
   138   181   180    1
   139   181   184    1
   140   213   212    1
   141   111   110    1
   142   111   112    1
   143   129   136   am
   144   129   128    1
   145   168   165    1
   146   137   138    1
   147   137   136    1
   148   137   140    1
   149   197   198    1
   150   142   140    1
   151   112   113    2
   152   141   140    1
   153   162   161    2
   154   167   166    2
   155   203   202   ar
   156   165   166    1
   157   165   164    1
   158   128   131    1
   159   128   127    1
   160   126   124   ar
   161   212   211    1
   162   131   132    1
   163   166   172   am
   164   133   132    1
   165   133   134    1
   166   163   161   am
   167   198   201    1
   168   198   199    1
   169   135   134    1
   170   202   204   ar
   171   202   201    1
   172   161   160    1
   173   124   125   ar
   174   124   123    1
   175   123   120    1
   176   211   210    1
   177   210   209    1
   178   199   200    2
   179   172   173    1
   180   156   155    1
   181   156   159    1
   182   156   157    1
   183   160   159    1
   184   121   120    1
   185   121   122    2
   186   173   174    1
   187   173   176    1
   188   178   177   ar
   189   175   174    2
   190   120   119    1
   191   158   157    2
   192   209   206    1
   193   177   176    1
   194   177   179   ar
   195   205   206    1
   196   206   207    1
   197   207   208    2
