@<TRIPOS>MOLECULE
tmp/2f97A00.pdb
 86 83 0 0 0
SMALL
GASTEIGER

@<TRIPOS>ATOM
      1  N         23.1240   24.6720    3.9760 N.3     9  VAL9       -0.1231
      2  CA        24.5420   24.7870    4.3300 C.3     9  VAL9        0.1692
      3  C         25.3250   23.6490    3.6670 C.2     9  VAL9        0.2592
      4  O         24.7920   22.5530    3.4680 O.2     9  VAL9       -0.2718
      5  CB        24.7840   24.8320    5.8660 C.3     9  VAL9        0.0266
      6  CG1       24.0530   26.0120    6.4870 C.3     9  VAL9        0.0020
      7  CG2       24.3640   23.5290    6.5430 C.3     9  VAL9        0.0020
      8  N         26.5820   23.9260    3.3250 N.am   10  GLY10      -0.1957
      9  CA        27.4310   22.9930    2.5810 C.3    10  GLY10       0.1869
     10  C         27.7090   21.6630    3.2580 C.2    10  GLY10       0.2309
     11  O         27.9070   20.6540    2.5820 O.2    10  GLY10      -0.2863
     12  N         23.3690   27.9890   -1.6060 N.3    37  GLU37      -0.1231
     13  CA        24.1980   27.7820   -0.4260 C.3    37  GLU37       0.1699
     14  C         24.1660   29.0460    0.4290 C.2    37  GLU37       0.2592
     15  O         24.4990   30.1350   -0.0440 O.2    37  GLU37      -0.2718
     16  CB        25.6400   27.4430   -0.8200 C.3    37  GLU37       0.0402
     17  CG        26.5280   27.0390    0.3620 C.3    37  GLU37       0.1161
     18  CD        28.0200   27.1540    0.0770 C.2    37  GLU37       0.3649
     19  OE1       28.4130   27.8350   -0.8960 O.co2  37  GLU37      -0.2457
     20  OE2       28.8120   26.5720    0.8460 O.co2  37  GLU37      -0.2457
     21  N         23.7500   28.8940    1.6830 N.am   38  MET38      -0.1965
     22  CA        23.6950   30.0150    2.6260 C.3    38  MET38       0.1736
     23  C         23.6140   29.5300    4.0640 C.2    38  MET38       0.2617
     24  O         23.0270   28.4830    4.3450 O.2    38  MET38      -0.2715
     25  CB        22.5240   30.9730    2.3140 C.3    38  MET38       0.0427
     26  CG        21.1880   30.3040    2.0420 C.3    38  MET38       0.0599
     27  SD        19.7820   31.4430    1.8850 S.3    38  MET38      -0.1393
     28  CE        20.0430   32.1490    0.2640 C.3    38  MET38       0.0692
     29  N         24.2160   30.2990    4.9670 N.am   39  GLY39      -0.1955
     30  CA        24.1450   30.0240    6.3980 C.3    39  GLY39       0.1869
     31  C         22.7420   30.2620    6.9220 C.2    39  GLY39       0.2309
     32  O         21.9120   30.8700    6.2370 O.2    39  GLY39      -0.2863
     33  N         33.6030   26.3230    8.7490 N.3   108  PRO108     -0.2102
     34  CA        34.2800   27.1290    7.7380 C.3   108  PRO108      0.1504
     35  C         34.5540   28.5440    8.2550 C.2   108  PRO108      0.2576
     36  O         34.2990   28.8260    9.4250 O.2   108  PRO108     -0.2718
     37  CB        33.2610   27.1660    6.5960 C.3   108  PRO108      0.0282
     38  CG        31.9340   27.1250    7.2860 C.3   108  PRO108      0.0208
     39  CD        32.1340   26.3680    8.5850 C.3   108  PRO108      0.0893
     40  N         35.0590   29.4180    7.3900 N.am  109  SER109     -0.1938
     41  CA        35.3330   30.8030    7.7700 C.3   109  SER109      0.2055
     42  C         34.2980   31.7750    7.1950 C.2   109  SER109      0.2644
     43  O         34.5620   32.9740    7.0600 O.2   109  SER109     -0.2714
     44  CB        36.7490   31.2030    7.3460 C.3   109  SER109      0.2130
     45  OG        36.8800   31.1560    5.9400 O.3   109  SER109     -0.2179
     46  N         33.1200   31.2510    6.8720 N.am  110  SER110     -0.1936
     47  CA        32.0290   32.0350    6.2960 C.3   110  SER110      0.2040
     48  C         31.2490   32.8000    7.3810 C.2   110  SER110      0.2485
     49  O         31.5490   32.6480    8.5700 O.2   110  SER110     -0.2729
     50  CB        31.1000   31.1040    5.5140 C.3   110  SER110      0.2129
     51  OG        30.6140   30.0720    6.3440 O.3   110  SER110     -0.2179
     52  N         30.2510   33.6260    6.9820 N.am  111  PRO111     -0.2726
     53  CA        29.4680   34.3810    7.9690 C.3   111  PRO111      0.1402
     54  C         28.9440   33.5320    9.1260 C.2   111  PRO111      0.2269
     55  O         28.5020   32.4000    8.9220 O.2   111  PRO111     -0.2865
     56  CB        28.3080   34.9380    7.1410 C.3   111  PRO111      0.0296
     57  CG        28.8920   35.1090    5.7830 C.3   111  PRO111      0.0237
     58  CD        29.8090   33.9280    5.6050 C.3   111  PRO111      0.0939
     59  N         28.1120   29.5410   12.0480 N.3   114  ASN114     -0.1240
     60  CA        28.3440   28.4230   11.1430 C.3   114  ASN114      0.1653
     61  C         28.7740   27.1910   11.9440 C.2   114  ASN114      0.2266
     62  O         28.6920   27.1910   13.1770 O.2   114  ASN114     -0.2867
     63  CB        29.3690   28.7930   10.0600 C.3   114  ASN114      0.1155
     64  CG        30.7090   29.2320   10.6350 C.2   114  ASN114      0.2627
     65  OD1       31.1120   28.8020   11.7130 O.2   114  ASN114     -0.2716
     66  ND2       31.4090   30.0910    9.9050 N.am  114  ASN114     -0.0877
     67  N         39.3400   27.6500    6.1690 N.3   137  ARG137     -0.1231
     68  CA        38.3270   28.1570    5.2440 C.3   137  ARG137      0.1694
     69  C         37.1590   27.2040    4.9760 C.2   137  ARG137      0.2591
     70  O         36.0090   27.6350    4.9700 O.2   137  ARG137     -0.2718
     71  CB        38.9750   28.5950    3.9260 C.3   137  ARG137      0.0321
     72  CG        38.0800   29.4700    3.0530 C.3   137  ARG137      0.0489
     73  CD        38.7680   29.8410    1.7490 C.3   137  ARG137      0.2205
     74  NE        39.0420   28.6610    0.9320 N.pl3 137  ARG137     -0.0865
     75  CZ        38.2040   28.1540    0.0320 C.cat 137  ARG137      0.5346
     76  NH1       37.0200   28.7190   -0.1800 N.pl3 137  ARG137      0.1354
     77  NH2       38.5490   27.0730   -0.6530 N.pl3 137  ARG137      0.1354
     78  N         37.4640   25.9250    4.7510 N.am  138  GLU138     -0.1979
     79  CA        36.4710   24.9310    4.3220 C.3   138  GLU138      0.1602
     80  C         36.7740   23.5470    4.9060 C.2   138  GLU138      0.2287
     81  O         37.8950   23.2840    5.3540 O.2   138  GLU138     -0.2864
     82  CB        36.4400   24.8310    2.7880 C.3   138  GLU138      0.0415
     83  CG        35.9310   26.0750    2.0400 C.3   138  GLU138      0.1163
     84  CD        34.4700   26.4020    2.3250 C.2   138  GLU138      0.3649
     85  OE1       33.6520   25.4590    2.4370 O.co2 138  GLU138     -0.2457
     86  OE2       34.1410   27.6070    2.4330 O.co2 138  GLU138     -0.2457
@<TRIPOS>BOND
     1    12    13    1
     2    19    18   ar
     3    16    13    1
     4    16    17    1
     5    77    75    1
     6    13    14    1
     7    76    75    1
     8    15    14    2
     9    75    74    2
    10    18    17    1
    11    18    20   ar
    12    28    27    1
    13    14    21   am
    14    74    73    1
    15    21    22    1
    16    73    72    1
    17    27    26    1
    18    83    84    1
    19    83    82    1
    20    26    25    1
    21    25    22    1
    22    84    86   ar
    23    84    85   ar
    24     9    10    1
    25     9     8    1
    26    11    10    2
    27    22    23    1
    28    82    79    1
    29    72    71    1
    30     8     3   am
    31     4     3    2
    32     3     2    1
    33    71    68    1
    34     1     2    1
    35    23    24    2
    36    23    29   am
    37    79    78    1
    38    79    80    1
    39     2     5    1
    40    78    69   am
    41    80    81    2
    42    29    30    1
    43    70    69    2
    44    69    68    1
    45    68    67    1
    46    50    47    1
    47    50    51    1
    48    58    57    1
    49    58    52    1
    50    57    56    1
    51     5     6    1
    52     5     7    1
    53    45    44    1
    54    32    31    2
    55    47    46    1
    56    47    48    1
    57    30    31    1
    58    37    38    1
    59    37    34    1
    60    46    42   am
    61    52    48   am
    62    52    53    1
    63    43    42    2
    64    56    53    1
    65    42    41    1
    66    38    39    1
    67    44    41    1
    68    48    49    2
    69    40    41    1
    70    40    35   am
    71    34    35    1
    72    34    33    1
    73    53    54    1
    74    35    36    2
    75    39    33    1
    76    55    54    2
    77    66    64   am
    78    63    64    1
    79    63    60    1
    80    64    65    2
    81    60    61    1
    82    60    59    1
    83    61    62    2
