@<TRIPOS>MOLECULE
tmp/2f97A03.pdb
 97 94 0 0 0
SMALL
GASTEIGER

@<TRIPOS>ATOM
      1  N          9.3670   29.0340   11.4070 N.3    67  LYS67      -0.1245
      2  CA         9.1290   27.7390   12.0430 C.3    67  LYS67       0.1561
      3  C         10.2560   26.7620   11.7140 C.2    67  LYS67       0.2260
      4  O         10.5380   26.4920   10.5450 O.2    67  LYS67      -0.2867
      5  CB         7.7760   27.1440   11.6410 C.3    67  LYS67       0.0271
      6  CG         7.5670   25.7310   12.1800 C.3    67  LYS67       0.0035
      7  CD         6.1310   25.2690   12.0840 C.3    67  LYS67       0.0206
      8  CE         6.0040   23.8410   12.6020 C.3    67  LYS67       0.1093
      9  NZ         4.5960   23.3480   12.5800 N.3    67  LYS67      -0.1314
     10  N         11.9360   22.8860   12.3520 N.3    69  THR69      -0.1218
     11  CA        11.6500   21.4950   12.7070 C.3    69  THR69       0.1862
     12  C         12.9470   20.6830   12.7520 C.2    69  THR69       0.2287
     13  O         13.7200   20.6830   11.7910 O.2    69  THR69      -0.2866
     14  CB        10.6600   20.8380   11.7010 C.3    69  THR69       0.1770
     15  OG1        9.4760   21.6370   11.5910 O.3    69  THR69      -0.2211
     16  CG2       10.2700   19.4300   12.1450 C.3    69  THR69       0.0375
     17  N         15.0110   21.7400    9.2520 N.3   183  ILE183     -0.1245
     18  CA        14.3920   22.4630    8.1460 C.3   183  ILE183      0.1561
     19  C         13.6860   23.7000    8.7150 C.2   183  ILE183      0.2260
     20  O         12.9890   23.6180    9.7310 O.2   183  ILE183     -0.2867
     21  CB        13.4240   21.5740    7.3070 C.3   183  ILE183      0.0252
     22  CG1       12.9140   22.3370    6.0760 C.3   183  ILE183      0.0019
     23  CG2       12.2680   21.0390    8.1630 C.3   183  ILE183      0.0019
     24  CD1       12.1350   21.4810    5.0750 C.3   183  ILE183      0.0001
     25  N         11.1160   26.9600    7.7250 N.3   185  VAL185     -0.1245
     26  CA        10.1480   27.5600    6.8050 C.3   185  VAL185      0.1561
     27  C          9.5040   28.7890    7.4590 C.2   185  VAL185      0.2260
     28  O          9.6510   29.0000    8.6660 O.2   185  VAL185     -0.2867
     29  CB         9.0350   26.5510    6.3740 C.3   185  VAL185      0.0252
     30  CG1        9.6360   25.3360    5.6620 C.3   185  VAL185      0.0019
     31  CG2        8.1760   26.1210    7.5680 C.3   185  VAL185      0.0019
     32  N          6.6360   30.8630    9.2000 N.3   187  ASN187     -0.1225
     33  CA         5.7040   30.4340   10.2360 C.3   187  ASN187      0.1785
     34  C          4.3700   29.9030    9.6980 C.2   187  ASN187      0.2597
     35  O          3.9010   28.8460   10.1260 O.2   187  ASN187     -0.2718
     36  CB         5.4530   31.5760   11.2220 C.3   187  ASN187      0.1169
     37  CG         4.9310   31.0890   12.5560 C.2   187  ASN187      0.2627
     38  OD1        3.9210   31.5840   13.0560 O.2   187  ASN187     -0.2716
     39  ND2        5.6180   30.1120   13.1420 N.am  187  ASN187     -0.0877
     40  N          3.7710   30.6290    8.7590 N.am  188  MET188     -0.1965
     41  CA         2.4490   30.2580    8.2490 C.3   188  MET188      0.1736
     42  C          2.5100   29.5450    6.8930 C.2   188  MET188      0.2616
     43  O          1.5380   29.5570    6.1340 O.2   188  MET188     -0.2715
     44  CB         1.5290   31.4840    8.1870 C.3   188  MET188      0.0427
     45  CG         1.3390   32.2040    9.5240 C.3   188  MET188      0.0599
     46  SD         0.6540   31.1640   10.8360 S.3   188  MET188     -0.1393
     47  CE        -1.0630   31.0500   10.3300 C.3   188  MET188      0.0692
     48  N          3.6510   28.9160    6.6040 N.am  189  GLU189     -0.1977
     49  CA         3.8490   28.1940    5.3470 C.3   189  GLU189      0.1602
     50  C          2.8600   27.0400    5.1870 C.2   189  GLU189      0.2287
     51  O          2.7380   26.1880    6.0680 O.2   189  GLU189     -0.2864
     52  CB         5.2850   27.6710    5.2420 C.3   189  GLU189      0.0415
     53  CG         5.6230   27.0570    3.8910 C.3   189  GLU189      0.1163
     54  CD         5.3740   28.0150    2.7430 C.2   189  GLU189      0.3649
     55  OE1        5.9250   29.1340    2.7620 O.co2 189  GLU189     -0.2457
     56  OE2        4.6170   27.6510    1.8230 O.co2 189  GLU189     -0.2457
     57  N          8.7580   18.0170    2.4090 N.3   198  TYR198     -0.1241
     58  CA         8.8110   17.4220    3.7350 C.3   198  TYR198      0.1605
     59  C          8.4910   15.9280    3.7020 C.2   198  TYR198      0.2264
     60  O          9.1140   15.1430    4.4160 O.2   198  TYR198     -0.2867
     61  CB         7.8540   18.1510    4.6780 C.3   198  TYR198      0.0534
     62  CG         8.0840   17.8420    6.1360 C.ar  198  TYR198     -0.0201
     63  CD1        9.0480   18.5340    6.8720 C.ar  198  TYR198     -0.0009
     64  CD2        7.3410   16.8570    6.7850 C.ar  198  TYR198     -0.0009
     65  CE1        9.2640   18.2530    8.2160 C.ar  198  TYR198      0.0417
     66  CE2        7.5480   16.5700    8.1280 C.ar  198  TYR198      0.0417
     67  CZ         8.5110   17.2710    8.8360 C.ar  198  TYR198      0.1957
     68  OH         8.7190   16.9930   10.1660 O.3   198  TYR198     -0.2866
     69  N          8.6390   14.6000   12.6390 N.3   214  PRO214     -0.2102
     70  CA         7.2600   14.7780   13.1190 C.3   214  PRO214      0.1504
     71  C          6.2790   15.1530   12.0080 C.2   214  PRO214      0.2576
     72  O          6.6610   15.8170   11.0450 O.2   214  PRO214     -0.2718
     73  CB         7.3790   15.9230   14.1360 C.3   214  PRO214      0.0282
     74  CG         8.7080   16.5490   13.8860 C.3   214  PRO214      0.0208
     75  CD         9.5830   15.4560   13.3780 C.3   214  PRO214      0.0893
     76  N          5.0280   14.7220   12.1530 N.am  215  ASN215     -0.1961
     77  CA         4.0020   14.9270   11.1290 C.3   215  ASN215      0.1819
     78  C          3.7830   16.4010   10.7830 C.2   215  ASN215      0.2621
     79  O          3.8250   17.2650   11.6610 O.2   215  ASN215     -0.2715
     80  CB         2.6830   14.2770   11.5590 C.3   215  ASN215      0.1195
     81  CG         1.9260   13.6620   10.3940 C.2   215  ASN215      0.2630
     82  OD1        0.7770   14.0180   10.1300 O.2   215  ASN215     -0.2716
     83  ND2        2.5680   12.7310    9.6910 N.am  215  ASN215     -0.0877
     84  N          3.5570   16.6690    9.4970 N.am  216  TRP216     -0.1974
     85  CA         3.3870   18.0290    8.9800 C.3   216  TRP216      0.1640
     86  C          2.1010   18.6730    9.4950 C.2   216  TRP216      0.2290
     87  O          2.0570   19.8780    9.7470 O.2   216  TRP216     -0.2864
     88  CB         3.3760   18.0100    7.4500 C.3   216  TRP216      0.0576
     89  CG         3.9970   19.2190    6.8040 C.ar  216  TRP216      0.0006
     90  CD1        5.3230   19.4280    6.5710 C.ar  216  TRP216      0.0946
     91  CD2        3.3160   20.3730    6.2910 C.ar  216  TRP216      0.0152
     92  NE1        5.5180   20.6380    5.9500 N.ar  216  TRP216     -0.2442
     93  CE2        4.3020   21.2410    5.7670 C.ar  216  TRP216      0.0810
     94  CE3        1.9720   20.7610    6.2280 C.ar  216  TRP216      0.0012
     95  CZ2        3.9850   22.4720    5.1850 C.ar  216  TRP216      0.0191
     96  CZ3        1.6610   21.9860    5.6540 C.ar  216  TRP216      0.0001
     97  CH2        2.6630   22.8250    5.1380 C.ar  216  TRP216      0.0015
@<TRIPOS>BOND
     1    56    54   ar
     2    57    58    1
     3    54    55   ar
     4    54    53    1
     5    59    58    1
     6    59    60    2
     7    58    61    1
     8    53    52    1
     9    61    62    1
    10    24    22    1
    11    97    95   ar
    12    97    96   ar
    13    95    93   ar
    14    50    49    1
    15    50    51    2
    16    52    49    1
    17    49    48    1
    18    96    94   ar
    19    30    29    1
    20    93    92   ar
    21    93    91   ar
    22    92    90   ar
    23    22    21    1
    24    43    42    2
    25    62    64   ar
    26    62    63   ar
    27    94    91   ar
    28    91    89   ar
    29    29    26    1
    30    29    31    1
    31    90    89   ar
    32    48    42   am
    33    64    66   ar
    34    89    88    1
    35    26    27    1
    36    26    25    1
    37    63    65   ar
    38    42    41    1
    39    21    18    1
    40    21    23    1
    41    88    85    1
    42    27    28    2
    43    66    67   ar
    44    18    19    1
    45    18    17    1
    46    44    41    1
    47    44    45    1
    48    65    67   ar
    49    41    40    1
    50    19    20    2
    51    40    34   am
    52    67    68    1
    53    85    86    1
    54    85    84    1
    55    32    33    1
    56    86    87    2
    57    84    78   am
    58    45    46    1
    59    83    81   am
    60    34    35    2
    61    34    33    1
    62    82    81    2
    63    33    36    1
    64    47    46    1
    65    81    80    1
    66     4     3    2
    67    78    77    1
    68    78    79    2
    69    72    71    2
    70    77    80    1
    71    77    76    1
    72    36    37    1
    73     1     2    1
    74    15    14    1
    75     5     2    1
    76     5     6    1
    77    14    16    1
    78    14    11    1
    79     3     2    1
    80    13    12    2
    81    71    76   am
    82    71    70    1
    83     7     6    1
    84     7     8    1
    85    10    11    1
    86    37    38    2
    87    37    39   am
    88     9     8    1
    89    69    70    1
    90    69    75    1
    91    11    12    1
    92    70    73    1
    93    75    74    1
    94    74    73    1
