@<TRIPOS>MOLECULE
tmp/2f98D00.pdb
 175 168 0 0 0
SMALL
GASTEIGER

@<TRIPOS>ATOM
      1  N         32.0550   14.2040   33.4180 N.3    14  TYR14      -0.1241
      2  CA        32.8040   13.9380   32.1820 C.3    14  TYR14       0.1605
      3  C         34.0700   14.7920   32.1200 C.2    14  TYR14       0.2264
      4  O         35.1110   14.3510   31.6310 O.2    14  TYR14      -0.2867
      5  CB        31.9640   14.2280   30.9230 C.3    14  TYR14       0.0534
      6  CG        30.8380   13.2430   30.6450 C.ar   14  TYR14      -0.0201
      7  CD1       29.5480   13.5060   31.0780 C.ar   14  TYR14      -0.0009
      8  CD2       31.0750   12.0550   29.9600 C.ar   14  TYR14      -0.0009
      9  CE1       28.5080   12.6250   30.8280 C.ar   14  TYR14       0.0417
     10  CE2       30.0360   11.1540   29.7070 C.ar   14  TYR14       0.0417
     11  CZ        28.7580   11.4540   30.1460 C.ar   14  TYR14       0.1957
     12  OH        27.7180   10.5860   29.9140 O.3    14  TYR14      -0.2866
     13  N         25.0800    2.8170   24.7020 N.3    35  THR35      -0.1218
     14  CA        26.2490    1.9750   25.0020 C.3    35  THR35       0.1862
     15  C         25.9580    0.4680   25.1200 C.2    35  THR35       0.2287
     16  O         26.8340   -0.3180   25.5320 O.2    35  THR35      -0.2866
     17  CB        27.0110    2.5130   26.2560 C.3    35  THR35       0.1770
     18  OG1       26.0860    2.7720   27.3290 O.3    35  THR35      -0.2211
     19  CG2       27.6120    3.8980   25.9650 C.3    35  THR35       0.0375
     20  N         28.4750   -2.0600   24.0050 N.3    38  PHE38      -0.1241
     21  CA        29.7760   -2.1580   24.6590 C.3    38  PHE38       0.1605
     22  C         29.7290   -2.7380   26.0740 C.2    38  PHE38       0.2264
     23  O         30.7570   -3.1960   26.5880 O.2    38  PHE38      -0.2867
     24  CB        30.4690   -0.7860   24.6720 C.3    38  PHE38       0.0534
     25  CG        30.3580   -0.0300   23.3650 C.ar   38  PHE38      -0.0203
     26  CD1       29.5080    1.0660   23.2520 C.ar   38  PHE38      -0.0042
     27  CD2       31.0910   -0.4250   22.2460 C.ar   38  PHE38      -0.0042
     28  CE1       29.3940    1.7600   22.0500 C.ar   38  PHE38      -0.0003
     29  CE2       30.9840    0.2650   21.0450 C.ar   38  PHE38      -0.0003
     30  CZ        30.1330    1.3590   20.9480 C.ar   38  PHE38      -0.0000
     31  N         31.2320    4.7720   31.4280 N.3    50  ASN50      -0.1240
     32  CA        31.1120    5.6260   30.2360 C.3    50  ASN50       0.1653
     33  C         31.9630    6.9030   30.3230 C.2    50  ASN50       0.2266
     34  O         32.5780    7.3030   29.3350 O.2    50  ASN50      -0.2867
     35  CB        29.6410    5.9400   29.9230 C.3    50  ASN50       0.1155
     36  CG        28.9070    4.7430   29.3320 C.2    50  ASN50       0.2627
     37  OD1       27.6720    4.7020   29.3160 O.2    50  ASN50      -0.2716
     38  ND2       29.6650    3.7570   28.8420 N.am   50  ASN50      -0.0877
     39  N         35.5400    5.7080   29.8540 N.3    53  TRP53      -0.1227
     40  CA        35.7600    5.4470   28.4300 C.3    53  TRP53       0.1737
     41  C         35.9960    6.7630   27.6730 C.2    53  TRP53       0.2595
     42  O         36.8380    6.8260   26.7610 O.2    53  TRP53      -0.2718
     43  CB        34.5850    4.6590   27.8150 C.3    53  TRP53       0.0564
     44  CG        34.8300    4.3280   26.3700 C.ar   53  TRP53       0.0003
     45  CD1       35.2740    3.1400   25.8650 C.ar   53  TRP53       0.0946
     46  CD2       34.6920    5.2130   25.2460 C.ar   53  TRP53       0.0152
     47  NE1       35.4250    3.2320   24.5010 N.ar   53  TRP53      -0.2442
     48  CE2       35.0640    4.4900   24.0940 C.ar   53  TRP53       0.0810
     49  CE3       34.2960    6.5560   25.0970 C.ar   53  TRP53       0.0012
     50  CZ2       35.0440    5.0490   22.8130 C.ar   53  TRP53       0.0191
     51  CZ3       34.2810    7.1170   23.8150 C.ar   53  TRP53       0.0001
     52  CH2       34.6600    6.3610   22.6960 C.ar   53  TRP53       0.0015
     53  N         35.2590    7.8110   28.0390 N.am   54  VAL54      -0.1980
     54  CA        35.4520    9.1250   27.4030 C.3    54  VAL54       0.1595
     55  C         36.8490    9.6950   27.6970 C.2    54  VAL54       0.2287
     56  O         37.5710   10.1200   26.7830 O.2    54  VAL54      -0.2864
     57  CB        34.3360   10.1270   27.7930 C.3    54  VAL54       0.0276
     58  CG1       34.7230   11.5620   27.4140 C.3    54  VAL54       0.0022
     59  CG2       33.0110    9.7330   27.1250 C.3    54  VAL54       0.0022
     60  N         39.0520    9.9160   24.3630 N.3    58  PHE58      -0.1241
     61  CA        39.0470   11.2950   23.8790 C.3    58  PHE58       0.1605
     62  C         40.0300   12.1790   24.6780 C.2    58  PHE58       0.2264
     63  O         40.0810   13.4040   24.4990 O.2    58  PHE58      -0.2867
     64  CB        37.6120   11.8680   23.8910 C.3    58  PHE58       0.0534
     65  CG        36.6370   11.1390   22.9620 C.ar   58  PHE58      -0.0203
     66  CD1       37.0890   10.4440   21.8320 C.ar   58  PHE58      -0.0042
     67  CD2       35.2710   11.1700   23.2160 C.ar   58  PHE58      -0.0042
     68  CE1       36.1900    9.7880   20.9780 C.ar   58  PHE58      -0.0003
     69  CE2       34.3590   10.5030   22.3720 C.ar   58  PHE58      -0.0003
     70  CZ        34.8240    9.8200   21.2470 C.ar   58  PHE58      -0.0000
     71  N         31.0490   18.6770   22.8000 N.3    82  LEU82      -0.1245
     72  CA        32.2090   17.8800   23.1800 C.3    82  LEU82       0.1561
     73  C         33.4660   18.3740   22.4690 C.2    82  LEU82       0.2260
     74  O         33.4510   18.5730   21.2510 O.2    82  LEU82      -0.2867
     75  CB        31.9680   16.3930   22.8470 C.3    82  LEU82       0.0270
     76  CG        33.0670   15.3640   23.1570 C.3    82  LEU82       0.0019
     77  CD1       33.2530   15.2270   24.6680 C.3    82  LEU82       0.0001
     78  CD2       32.7010   14.0100   22.5290 C.3    82  LEU82       0.0001
     79  N         38.3710    3.0890   18.9050 N.3    90  MET90      -0.1230
     80  CA        36.9560    3.4200   18.9430 C.3    90  MET90       0.1702
     81  C         36.2580    2.7330   17.7700 C.2    90  MET90       0.2592
     82  O         36.6170    2.9730   16.6190 O.2    90  MET90      -0.2718
     83  CB        36.8240    4.9490   18.8700 C.3    90  MET90       0.0401
     84  CG        35.5390    5.4800   18.3500 C.3    90  MET90       0.0596
     85  SD        35.4580    7.1960   18.7490 S.3    90  MET90      -0.1393
     86  CE        36.4670    7.9560   17.4580 C.3    90  MET90       0.0692
     87  N         35.2720    1.8860   18.0840 N.am   91  VAL91      -0.1980
     88  CA        34.5590    1.0340   17.1050 C.3    91  VAL91       0.1595
     89  C         35.4550    0.4710   15.9990 C.2    91  VAL91       0.2287
     90  O         35.1690    0.6120   14.8050 O.2    91  VAL91      -0.2864
     91  CB        33.2520    1.6900   16.5250 C.3    91  VAL91       0.0276
     92  CG1       32.2890    2.0690   17.6400 C.3    91  VAL91       0.0022
     93  CG2       33.5510    2.8860   15.6100 C.3    91  VAL91       0.0022
     94  N         38.3470    1.4190   15.0190 N.3    93  MET93      -0.1245
     95  CA        39.2320    2.3800   14.3650 C.3    93  MET93       0.1570
     96  C         40.3980    2.7480   15.2840 C.2    93  MET93       0.2261
     97  O         40.1850    3.0830   16.4510 O.2    93  MET93      -0.2867
     98  CB        38.4790    3.6520   13.9760 C.3    93  MET93       0.0387
     99  CG        37.5460    3.5120   12.7760 C.3    93  MET93       0.0595
    100  SD        36.2800    4.7580   12.8680 S.3    93  MET93      -0.1393
    101  CE        35.0980    4.1080   11.7130 C.3    93  MET93       0.0692
    102  N         39.0550   17.2290   17.7200 N.3   100  PHE100     -0.1241
    103  CA        37.7110   17.3300   17.1560 C.3   100  PHE100      0.1605
    104  C         36.7960   18.0170   18.1440 C.2   100  PHE100      0.2264
    105  O         37.0900   18.0780   19.3480 O.2   100  PHE100     -0.2867
    106  CB        37.1430   15.9450   16.8310 C.3   100  PHE100      0.0534
    107  CG        36.8360   15.1240   18.0550 C.ar  100  PHE100     -0.0203
    108  CD1       35.5760   15.1730   18.6490 C.ar  100  PHE100     -0.0042
    109  CD2       37.8120   14.3220   18.6270 C.ar  100  PHE100     -0.0042
    110  CE1       35.2910   14.4190   19.7920 C.ar  100  PHE100     -0.0003
    111  CE2       37.5350   13.5640   19.7720 C.ar  100  PHE100     -0.0003
    112  CZ        36.2800   13.6110   20.3510 C.ar  100  PHE100     -0.0000
    113  N         26.3410   18.1550   20.8640 N.3   104  GLN104     -0.1245
    114  CA        25.5740   16.9930   21.3000 C.3   104  GLN104      0.1566
    115  C         24.2370   17.4600   21.8480 C.2   104  GLN104      0.2260
    116  O         24.1340   18.5810   22.3710 O.2   104  GLN104     -0.2867
    117  CB        26.3100   16.2090   22.3880 C.3   104  GLN104      0.0367
    118  CG        27.7760   15.9090   22.1270 C.3   104  GLN104      0.0905
    119  CD        28.2870   14.7420   22.9790 C.2   104  GLN104      0.2608
    120  OE1       27.9100   14.5950   24.1550 O.2   104  GLN104     -0.2717
    121  NE2       29.1550   13.9300   22.3970 N.am  104  GLN104     -0.0878
    122  N         21.8040   10.2450   24.3040 N.3   120  ASP120     -0.1239
    123  CA        22.6410   11.3030   23.7740 C.3   120  ASP120      0.1674
    124  C         22.9330   11.1180   22.3000 C.2   120  ASP120      0.2266
    125  O         23.1160    9.9910   21.8200 O.2   120  ASP120     -0.2867
    126  CB        23.8860   11.5400   24.6450 C.3   120  ASP120      0.1410
    127  CG        24.9900   10.5450   24.4000 C.2   120  ASP120      0.3668
    128  OD1       24.8880    9.3850   24.8650 O.co2 120  ASP120     -0.2456
    129  OD2       26.0390   10.8550   23.7970 O.co2 120  ASP120     -0.2456
    130  N         25.5620   12.4380   19.7270 N.3   122  PRO122     -0.2116
    131  CA        26.7690   13.0960   19.2160 C.3   122  PRO122      0.1372
    132  C         26.5980   13.4860   17.7610 C.2   122  PRO122      0.2244
    133  O         25.7570   12.9140   17.0470 O.2   122  PRO122     -0.2868
    134  CB        27.8320   11.9910   19.3000 C.3   122  PRO122      0.0268
    135  CG        27.2620   11.0120   20.3410 C.3   122  PRO122      0.0207
    136  CD        25.7930   11.0130   20.0280 C.3   122  PRO122      0.0892
    137  N         28.0720   12.5820   15.0610 N.3   124  TYR124     -0.1241
    138  CA        28.9470   11.5200   14.5950 C.3   124  TYR124      0.1605
    139  C         29.6260   11.8730   13.2770 C.2   124  TYR124      0.2264
    140  O         30.8390   11.6820   13.1250 O.2   124  TYR124     -0.2867
    141  CB        28.1810   10.2120   14.4010 C.3   124  TYR124      0.0534
    142  CG        27.6640    9.5480   15.6630 C.ar  124  TYR124     -0.0201
    143  CD1       26.2970    9.5390   15.9520 C.ar  124  TYR124     -0.0009
    144  CD2       28.5310    8.8880   16.5390 C.ar  124  TYR124     -0.0009
    145  CE1       25.8040    8.9180   17.0920 C.ar  124  TYR124      0.0417
    146  CE2       28.0430    8.2570   17.6820 C.ar  124  TYR124      0.0417
    147  CZ        26.6880    8.2790   17.9450 C.ar  124  TYR124      0.1957
    148  OH        26.2040    7.6650   19.0680 O.3   124  TYR124     -0.2866
    149  N         32.2160   14.7370   13.5050 N.3   127  THR127     -0.1203
    150  CA        33.3990   14.2970   14.2420 C.3   127  THR127      0.1994
    151  C         34.2410   13.3960   13.3370 C.2   127  THR127      0.2617
    152  O         35.4500   13.5590   13.2470 O.2   127  THR127     -0.2717
    153  CB        32.9630   13.5380   15.5100 C.3   127  THR127      0.1784
    154  OG1       32.3990   14.4730   16.4420 O.3   127  THR127     -0.2211
    155  CG2       34.1840   12.9350   16.2570 C.3   127  THR127      0.0376
    156  N         33.5760   12.4540   12.6600 N.am  128  TYR128     -0.1975
    157  CA        34.2290   11.5250   11.7510 C.3   128  TYR128      0.1639
    158  C         35.0200   12.3050   10.6940 C.2   128  TYR128      0.2290
    159  O         36.1780   11.9660   10.4010 O.2   128  TYR128     -0.2864
    160  CB        33.1740   10.6070   11.1190 C.3   128  TYR128      0.0560
    161  CG        33.6980    9.4320   10.3090 C.ar  128  TYR128     -0.0198
    162  CD1       34.5140    8.4440   10.8880 C.ar  128  TYR128     -0.0009
    163  CD2       33.3630    9.3000    8.9690 C.ar  128  TYR128     -0.0009
    164  CE1       34.9850    7.3590   10.1220 C.ar  128  TYR128      0.0417
    165  CE2       33.8130    8.2220    8.2120 C.ar  128  TYR128      0.0417
    166  CZ        34.6260    7.2580    8.7940 C.ar  128  TYR128      0.1957
    167  OH        35.0730    6.2050    8.0150 O.3   128  TYR128     -0.2866
    168  N         38.1140   13.6400   12.1530 N.3   131  LEU131     -0.1245
    169  CA        39.0650   12.5620   12.4120 C.3   131  LEU131      0.1561
    170  C         39.7690   12.0570   11.1530 C.2   131  LEU131      0.2260
    171  O         40.5980   11.1420   11.2260 O.2   131  LEU131     -0.2867
    172  CB        38.3610   11.3950   13.1160 C.3   131  LEU131      0.0270
    173  CG        37.8730   11.7030   14.5280 C.3   131  LEU131      0.0019
    174  CD1       37.4260   10.4080   15.2250 C.3   131  LEU131      0.0001
    175  CD2       38.9730   12.4160   15.3360 C.3   131  LEU131      0.0001
@<TRIPOS>BOND
     1   167   166    1
     2   165   166   ar
     3   165   163   ar
     4   166   164   ar
     5   163   161   ar
     6   164   162   ar
     7   161   162   ar
     8   161   160    1
     9   159   158    2
    10   158   157    1
    11   160   157    1
    12   170   171    2
    13   170   169    1
    14   101   100    1
    15   157   156    1
    16   168   169    1
    17   169   172    1
    18   156   151   am
    19    99   100    1
    20    99    98    1
    21   172   173    1
    22   140   139    2
    23   152   151    2
    24   139   138    1
    25   151   150    1
    26   149   150    1
    27    98    95    1
    28   150   153    1
    29    95    94    1
    30    95    96    1
    31   141   138    1
    32   141   142    1
    33   173   174    1
    34   173   175    1
    35   138   137    1
    36    90    89    2
    37    96    97    2
    38   153   155    1
    39   153   154    1
    40    93    91    1
    41   142   143   ar
    42   142   144   ar
    43   143   145   ar
    44    89    88    1
    45    91    88    1
    46    91    92    1
    47   144   146   ar
    48    82    81    2
    49   106   103    1
    50   106   107    1
    51   133   132    2
    52   145   147   ar
    53    88    87    1
    54   103   102    1
    55   103   104    1
    56    86    85    1
    57   146   147   ar
    58   132   131    1
    59    81    87   am
    60    81    80    1
    61   147   148    1
    62   107   109   ar
    63   107   108   ar
    64   104   105    2
    65    84    85    1
    66    84    83    1
    67   109   111   ar
    68   108   110   ar
    69    83    80    1
    70    79    80    1
    71   131   134    1
    72   131   130    1
    73   134   135    1
    74   130   136    1
    75   111   112   ar
    76   110   112   ar
    77   136   135    1
    78   113   114    1
    79    30    29   ar
    80    30    28   ar
    81    68    70   ar
    82    68    66   ar
    83    29    27   ar
    84    70    69   ar
    85    74    73    2
    86   114   115    1
    87   114   117    1
    88   125   124    2
    89    66    65   ar
    90   115   116    2
    91    28    26   ar
    92   118   117    1
    93   118   119    1
    94    27    25   ar
    95   124   123    1
    96    69    67   ar
    97   121   119   am
    98    73    72    1
    99    78    76    1
   100    52    50   ar
   101    52    51   ar
   102    71    72    1
   103    50    48   ar
   104    75    76    1
   105    75    72    1
   106    65    67   ar
   107    65    64    1
   108   119   120    2
   109    76    77    1
   110    26    25   ar
   111    25    24    1
   112   123   122    1
   113   123   126    1
   114   129   127   ar
   115    51    49   ar
   116    61    64    1
   117    61    60    1
   118    61    62    1
   119    20    21    1
   120    48    47   ar
   121    48    46   ar
   122   127   126    1
   123   127   128   ar
   124    63    62    2
   125    47    45   ar
   126    21    24    1
   127    21    22    1
   128    13    14    1
   129    14    15    1
   130    14    17    1
   131    49    46   ar
   132    15    16    2
   133    46    44   ar
   134    45    44   ar
   135    19    17    1
   136    22    23    2
   137    17    18    1
   138    44    43    1
   139    42    41    2
   140    56    55    2
   141    59    57    1
   142    54    55    1
   143    54    57    1
   144    54    53    1
   145    58    57    1
   146    41    53   am
   147    41    40    1
   148    43    40    1
   149    40    39    1
   150    38    36   am
   151    37    36    2
   152    36    35    1
   153    34    33    2
   154    10     8   ar
   155    10    11   ar
   156    12    11    1
   157    35    32    1
   158     8     6   ar
   159    11     9   ar
   160    32    33    1
   161    32    31    1
   162     6     5    1
   163     6     7   ar
   164     9     7   ar
   165     5     2    1
   166     4     3    2
   167     3     2    1
   168     2     1    1
