@<TRIPOS>MOLECULE
tmp/2f99D00.pdb
 222 214 0 0 0
SMALL
GASTEIGER

@<TRIPOS>ATOM
      1  N         15.0380   -0.2820    1.5250 N.3    15  TYR15      -0.1241
      2  CA        14.4680    0.8260    2.2950 C.3    15  TYR15       0.1605
      3  C         13.5140    1.6490    1.4360 C.2    15  TYR15       0.2264
      4  O         12.4710    2.0940    1.9200 O.2    15  TYR15      -0.2867
      5  CB        15.5550    1.7530    2.8380 C.3    15  TYR15       0.0534
      6  CG        16.3280    1.2100    4.0070 C.ar   15  TYR15      -0.0201
      7  CD1       17.6500    0.8030    3.8530 C.ar   15  TYR15      -0.0009
      8  CD2       15.7430    1.1120    5.2800 C.ar   15  TYR15      -0.0009
      9  CE1       18.3810    0.3070    4.9330 C.ar   15  TYR15       0.0417
     10  CE2       16.4680    0.6180    6.3680 C.ar   15  TYR15       0.0417
     11  CZ        17.7880    0.2180    6.1810 C.ar   15  TYR15       0.1957
     12  OH        18.5370   -0.2760    7.2350 O.3    15  TYR15      -0.2866
     13  N         23.2660   -4.6810   13.6900 N.3    33  ASN33      -0.1240
     14  CA        23.3930   -3.2380   13.6510 C.3    33  ASN33       0.1653
     15  C         23.2820   -2.7540   15.0900 C.2    33  ASN33       0.2266
     16  O         22.2070   -2.8520   15.6850 O.2    33  ASN33      -0.2867
     17  CB        22.2910   -2.6240   12.7840 C.3    33  ASN33       0.1155
     18  CG        22.3650   -1.1030   12.7230 C.2    33  ASN33       0.2627
     19  OD1       22.8660   -0.4480   13.6340 O.2    33  ASN33      -0.2716
     20  ND2       21.8730   -0.5400   11.6360 N.am   33  ASN33      -0.0877
     21  N         23.0040    0.0390   16.3720 N.3    35  GLY35      -0.1210
     22  CA        22.0540    1.1300   16.5510 C.3    35  GLY35       0.1956
     23  C         20.6330    0.6910   16.8480 C.2    35  GLY35       0.2612
     24  O         19.8070    1.4970   17.2820 O.2    35  GLY35      -0.2717
     25  N         20.3250   -0.5820   16.6270 N.am   36  THR36      -0.1952
     26  CA        18.9670   -1.0370   16.8760 C.3    36  THR36       0.1897
     27  C         18.8510   -2.0120   18.0680 C.2    36  THR36       0.2313
     28  O         17.8060   -2.6250   18.3010 O.2    36  THR36      -0.2863
     29  CB        18.2970   -1.5230   15.5610 C.3    36  THR36       0.1794
     30  OG1       19.0280   -2.6260   15.0250 O.3    36  THR36      -0.2208
     31  CG2       18.3230   -0.3760   14.5250 C.3    36  THR36       0.0378
     32  N         15.9280   -1.7860   20.5200 N.3    39  PHE39      -0.1227
     33  CA        14.5740   -2.1140   20.0900 C.3    39  PHE39       0.1736
     34  C         14.2680   -3.5950   20.0170 C.2    39  PHE39       0.2596
     35  O         13.1240   -4.0100   20.2380 O.2    39  PHE39      -0.2718
     36  CB        14.2940   -1.4390   18.7550 C.3    39  PHE39       0.0547
     37  CG        14.7340   -0.0120   18.7220 C.ar   39  PHE39      -0.0202
     38  CD1       15.7910    0.3810   17.9180 C.ar   39  PHE39      -0.0042
     39  CD2       14.1230    0.9320   19.5410 C.ar   39  PHE39      -0.0042
     40  CE1       16.2110    1.7080   17.8900 C.ar   39  PHE39      -0.0003
     41  CE2       14.5380    2.2640   19.5250 C.ar   39  PHE39      -0.0003
     42  CZ        15.5850    2.6500   18.6950 C.ar   39  PHE39      -0.0000
     43  N         15.2910   -4.3910   19.7200 N.am   40  THR40      -0.1953
     44  CA        15.0970   -5.8150   19.5100 C.3    40  THR40       0.1897
     45  C         16.3910   -6.5690   19.7260 C.2    40  THR40       0.2313
     46  O         17.4750   -5.9820   19.6960 O.2    40  THR40      -0.2863
     47  CB        14.5630   -6.1200   18.0770 C.3    40  THR40       0.1794
     48  OG1       14.2630   -7.5100   17.9860 O.3    40  THR40      -0.2208
     49  CG2       15.5870   -5.7890   17.0170 C.3    40  THR40       0.0378
     50  N         16.3950   -9.2770   11.3290 N.3    47  LEU47      -0.1245
     51  CA        16.6350   -7.9370   11.8730 C.3    47  LEU47       0.1561
     52  C         16.5220   -6.8690   10.7890 C.2    47  LEU47       0.2260
     53  O         15.8120   -5.8740   10.9630 O.2    47  LEU47      -0.2867
     54  CB        18.0040   -7.8430   12.5600 C.3    47  LEU47       0.0270
     55  CG        18.4020   -6.4250   13.0120 C.3    47  LEU47       0.0019
     56  CD1       17.4310   -5.8700   14.0850 C.3    47  LEU47       0.0001
     57  CD2       19.8580   -6.3720   13.4840 C.3    47  LEU47       0.0001
     58  N         12.8790   -6.2680    9.6950 N.3    50  ILE50      -0.1231
     59  CA        12.0770   -5.4840   10.6420 C.3    50  ILE50       0.1692
     60  C         12.5430   -4.0270   10.7230 C.2    50  ILE50       0.2592
     61  O         11.7270   -3.1180   10.9060 O.2    50  ILE50      -0.2718
     62  CB        11.8810   -6.1340   12.0500 C.3    50  ILE50       0.0266
     63  CG1       12.8950   -5.6740   13.0730 C.3    50  ILE50       0.0019
     64  CG2       11.6680   -7.6460   11.9970 C.3    50  ILE50       0.0020
     65  CD1       12.2950   -4.6770   14.0050 C.3    50  ILE50       0.0001
     66  N         13.8440   -3.8020   10.5730 N.am   51  ASN51      -0.1974
     67  CA        14.3490   -2.4290   10.5240 C.3    51  ASN51       0.1688
     68  C         13.7770   -1.6600    9.3310 C.2    51  ASN51       0.2292
     69  O         13.3400   -0.5130    9.4820 O.2    51  ASN51      -0.2864
     70  CB        15.8890   -2.4110   10.5870 C.3    51  ASN51       0.1181
     71  CG        16.4690   -1.0040   10.5100 C.2    51  ASN51       0.2629
     72  OD1       16.2900   -0.1910   11.4160 O.2    51  ASN51      -0.2716
     73  ND2       17.1880   -0.7220    9.4310 N.am   51  ASN51      -0.0877
     74  N         10.1420   -0.8600   10.1000 N.3    54  TRP54      -0.1227
     75  CA        10.1210    0.2710   11.0460 C.3    54  TRP54       0.1737
     76  C         10.3350    1.6270   10.3470 C.2    54  TRP54       0.2595
     77  O          9.6710    2.6240   10.6690 O.2    54  TRP54      -0.2718
     78  CB        11.1610    0.0780   12.1570 C.3    54  TRP54       0.0564
     79  CG        11.1020    1.1470   13.2270 C.ar   54  TRP54       0.0003
     80  CD1       10.3980    1.1030   14.3990 C.ar   54  TRP54       0.0946
     81  CD2       11.7630    2.4180   13.2050 C.ar   54  TRP54       0.0152
     82  NE1       10.5910    2.2670   15.1130 N.ar   54  TRP54      -0.2442
     83  CE2       11.4210    3.0910   14.4010 C.ar   54  TRP54       0.0810
     84  CE3       12.6020    3.0560   12.2860 C.ar   54  TRP54       0.0012
     85  CZ2       11.8960    4.3690   14.7060 C.ar   54  TRP54       0.0191
     86  CZ3       13.0700    4.3450   12.5930 C.ar   54  TRP54       0.0001
     87  CH2       12.7170    4.9750   13.7930 C.ar   54  TRP54       0.0015
     88  N         11.2660    1.6740    9.4030 N.am   55  VAL55      -0.1980
     89  CA        11.5090    2.9150    8.6510 C.3    55  VAL55       0.1595
     90  C         10.2610    3.3650    7.8880 C.2    55  VAL55       0.2287
     91  O          9.8660    4.5330    7.9620 O.2    55  VAL55      -0.2864
     92  CB        12.7290    2.7920    7.7060 C.3    55  VAL55       0.0276
     93  CG1       12.7880    3.9920    6.7250 C.3    55  VAL55       0.0022
     94  CG2       14.0170    2.7120    8.5380 C.3    55  VAL55       0.0022
     95  N          8.6530    6.7340    9.2490 N.3    59  PHE59      -0.1241
     96  CA         8.9920    7.8460    8.3560 C.3    59  PHE59       0.1605
     97  C          8.1390    7.8750    7.0820 C.2    59  PHE59       0.2264
     98  O          8.4130    8.6550    6.1560 O.2    59  PHE59      -0.2867
     99  CB        10.4900    7.8220    8.0320 C.3    59  PHE59       0.0534
    100  CG        11.3750    7.9680    9.2450 C.ar   59  PHE59      -0.0203
    101  CD1       11.0280    8.8310   10.2860 C.ar   59  PHE59      -0.0042
    102  CD2       12.5680    7.2590    9.3350 C.ar   59  PHE59      -0.0042
    103  CE1       11.8520    8.9750   11.3950 C.ar   59  PHE59      -0.0003
    104  CE2       13.3970    7.3910   10.4480 C.ar   59  PHE59      -0.0003
    105  CZ        13.0460    8.2440   11.4730 C.ar   59  PHE59      -0.0000
    106  N         18.4640   10.3970    3.9350 N.3    83  LEU83      -0.1245
    107  CA        17.1110    9.9460    4.2310 C.3    83  LEU83       0.1561
    108  C         16.1300   11.1090    4.1420 C.2    83  LEU83       0.2260
    109  O         16.3920   12.1910    4.6760 O.2    83  LEU83      -0.2867
    110  CB        17.0420    9.3230    5.6260 C.3    83  LEU83       0.0270
    111  CG        15.6810    8.8930    6.1810 C.3    83  LEU83       0.0019
    112  CD1       15.1460    7.7130    5.3430 C.3    83  LEU83       0.0001
    113  CD2       15.8410    8.4890    7.6370 C.3    83  LEU83       0.0001
    114  N          8.6060    7.4970   17.7390 N.3    91  MET91      -0.1230
    115  CA        10.0470    7.3440   17.5800 C.3    91  MET91       0.1702
    116  C         10.6870    7.5540   18.9510 C.2    91  MET91       0.2592
    117  O         10.6290    8.6550   19.4990 O.2    91  MET91      -0.2718
    118  CB        10.5580    8.4010   16.5920 C.3    91  MET91       0.0401
    119  CG        11.9960    8.2230   16.1250 C.3    91  MET91       0.0596
    120  SD        12.4700    9.5120   14.9610 S.3    91  MET91      -0.1393
    121  CE        12.5290   10.9520   16.0010 C.3    91  MET91       0.0692
    122  N         11.2680    6.4900   19.5030 N.am   92  VAL92      -0.1980
    123  CA        11.8900    6.5060   20.8440 C.3    92  VAL92       0.1595
    124  C         11.1470    7.3550   21.8860 C.2    92  VAL92       0.2287
    125  O         11.7300    8.2080   22.5640 O.2    92  VAL92      -0.2864
    126  CB        13.4360    6.8060   20.7940 C.3    92  VAL92       0.0276
    127  CG1       14.1520    5.7120   20.0150 C.3    92  VAL92       0.0022
    128  CG2       13.7410    8.1700   20.1960 C.3    92  VAL92       0.0022
    129  N          8.8550    9.6440   21.4000 N.3    94  MET94      -0.1245
    130  CA         8.3630   10.9290   20.9050 C.3    94  MET94       0.1570
    131  C          7.1580   10.6630   20.0190 C.2    94  MET94       0.2261
    132  O          7.2300    9.8330   19.1090 O.2    94  MET94      -0.2867
    133  CB         9.4620   11.6810   20.1370 C.3    94  MET94       0.0387
    134  CG        10.6180   12.1590   21.0370 C.3    94  MET94       0.0595
    135  SD        12.0720   12.8000   20.1670 S.3    94  MET94      -0.1393
    136  CE        12.8390   11.3230   19.5300 C.3    94  MET94       0.0692
    137  N         11.2500   15.8370    6.9380 N.3   101  PHE101     -0.1241
    138  CA        12.6570   16.0110    7.2730 C.3   101  PHE101      0.1605
    139  C         13.5160   15.3700    6.1920 C.2   101  PHE101      0.2264
    140  O         13.0520   14.5180    5.4080 O.2   101  PHE101     -0.2867
    141  CB        12.9700   15.3760    8.6470 C.3   101  PHE101      0.0534
    142  CG        12.9270   13.8890    8.6230 C.ar  101  PHE101     -0.0203
    143  CD1       14.0980   13.1550    8.4040 C.ar  101  PHE101     -0.0042
    144  CD2       11.7120   13.2130    8.7370 C.ar  101  PHE101     -0.0042
    145  CE1       14.0610   11.7630    8.3390 C.ar  101  PHE101     -0.0003
    146  CE2       11.6650   11.8270    8.6820 C.ar  101  PHE101     -0.0003
    147  CZ        12.8400   11.1030    8.4680 C.ar  101  PHE101     -0.0000
    148  N         23.2600   10.7240    5.9150 N.3   105  GLN105     -0.1245
    149  CA        23.6590    9.5700    6.7160 C.3   105  GLN105      0.1566
    150  C         24.9760    9.0300    6.2150 C.2   105  GLN105      0.2260
    151  O         25.2680    9.0930    5.0250 O.2   105  GLN105     -0.2867
    152  CB        22.6220    8.4470    6.6310 C.3   105  GLN105      0.0367
    153  CG        21.1860    8.8790    6.9660 C.3   105  GLN105      0.0905
    154  CD        20.2920    7.7130    7.2810 C.2   105  GLN105      0.2608
    155  OE1       20.4250    6.6360    6.6960 O.2   105  GLN105     -0.2717
    156  NE2       19.3670    7.9140    8.2070 N.am  105  GLN105     -0.0878
    157  N         26.9550    5.3510    6.3930 N.3   107  HIS107     -0.1241
    158  CA        26.8450    3.9390    6.7480 C.3   107  HIS107      0.1621
    159  C         28.1790    3.2430    6.5310 C.2   107  HIS107      0.2264
    160  O         28.8350    3.4500    5.5080 O.2   107  HIS107     -0.2867
    161  CB        25.7890    3.2450    5.8830 C.3   107  HIS107      0.0745
    162  CG        24.3980    3.7720    6.0650 C.ar  107  HIS107      0.0817
    163  ND1       23.3220    2.9530    6.3210 N.ar  107  HIS107     -0.2268
    164  CD2       23.9010    5.0310    5.9920 C.ar  107  HIS107      0.1154
    165  CE1       22.2240    3.6850    6.4230 C.ar  107  HIS107      0.1986
    166  NE2       22.5510    4.9510    6.2310 N.ar  107  HIS107     -0.2212
    167  N         26.7300   -3.5770   10.3400 N.3   119  HIS119     -0.1241
    168  CA        26.2040   -2.3810    9.7040 C.3   119  HIS119      0.1621
    169  C         26.0970   -1.3200   10.7740 C.2   119  HIS119      0.2264
    170  O         25.3570   -1.4830   11.7450 O.2   119  HIS119     -0.2867
    171  CB        24.8350   -2.7220    9.0930 C.3   119  HIS119      0.0745
    172  CG        24.1410   -1.5770    8.4190 C.ar  119  HIS119      0.0817
    173  ND1       22.8350   -1.6660    7.9890 N.ar  119  HIS119     -0.2268
    174  CD2       24.5630   -0.3320    8.0890 C.ar  119  HIS119      0.1154
    175  CE1       22.4780   -0.5220    7.4290 C.ar  119  HIS119      0.1986
    176  NE2       23.5110    0.3020    7.4720 N.ar  119  HIS119     -0.2212
    177  N         25.2730    2.7350   11.1780 N.3   121  ASP121     -0.1239
    178  CA        24.8210    3.9110   10.4670 C.3   121  ASP121      0.1674
    179  C         24.6090    5.0810   11.3890 C.2   121  ASP121      0.2266
    180  O         24.1310    4.9360   12.5250 O.2   121  ASP121     -0.2867
    181  CB        23.6030    3.6240    9.6020 C.3   121  ASP121      0.1410
    182  CG        22.3480    3.5130   10.3850 C.2   121  ASP121      0.3668
    183  OD1       22.2710    2.6220   11.2520 O.co2 121  ASP121     -0.2456
    184  OD2       21.4310    4.3250   10.1260 O.co2 121  ASP121     -0.2456
    185  N         22.7020    8.4320   11.3480 N.3   123  PRO123     -0.2116
    186  CA        21.7640    9.4450   10.8870 C.3   123  PRO123      0.1372
    187  C         22.2290   10.8210   11.3670 C.2   123  PRO123      0.2244
    188  O         23.0520   10.9200   12.2900 O.2   123  PRO123     -0.2868
    189  CB        20.4580    9.0680   11.6100 C.3   123  PRO123      0.0268
    190  CG        20.6210    7.6050   11.9970 C.3   123  PRO123      0.0207
    191  CD        22.0830    7.4880   12.3020 C.3   123  PRO123      0.0892
    192  N         21.0980   12.8610   13.5650 N.3   125  TYR125     -0.1241
    193  CA        20.0780   12.8680   14.6220 C.3   125  TYR125      0.1605
    194  C         19.6790   14.3020   14.9600 C.2   125  TYR125      0.2264
    195  O         18.4960   14.6330   15.0060 O.2   125  TYR125     -0.2867
    196  CB        20.5950   12.1910   15.8950 C.3   125  TYR125      0.0534
    197  CG        20.7900   10.6970   15.8000 C.ar  125  TYR125     -0.0201
    198  CD1       22.0740   10.1490   15.7280 C.ar  125  TYR125     -0.0009
    199  CD2       19.6980    9.8290   15.7960 C.ar  125  TYR125     -0.0009
    200  CE1       22.2580    8.7630   15.6510 C.ar  125  TYR125      0.0417
    201  CE2       19.8780    8.4500   15.7130 C.ar  125  TYR125      0.0417
    202  CZ        21.1500    7.9320   15.6480 C.ar  125  TYR125      0.1957
    203  OH        21.3220    6.5700   15.5720 O.3   125  TYR125     -0.2866
    204  N         17.8200   16.1400   12.1540 N.3   128  THR128     -0.1203
    205  CA        16.4730   15.5810   12.0630 C.3   128  THR128      0.1994
    206  C         15.5970   16.0990   13.2110 C.2   128  THR128      0.2617
    207  O         14.4770   16.5890   12.9910 O.2   128  THR128     -0.2717
    208  CB        16.5290   14.0450   12.0470 C.3   128  THR128      0.1784
    209  OG1       17.2220   13.6220   10.8650 O.3   128  THR128     -0.2211
    210  CG2       15.1180   13.4440   12.0570 C.3   128  THR128      0.0376
    211  N         16.1440   16.0360   14.4220 N.am  129  TYR129     -0.1975
    212  CA        15.4620   16.5300   15.6120 C.3   129  TYR129      0.1639
    213  C         15.0360   17.9930   15.4400 C.2   129  TYR129      0.2290
    214  O         13.8970   18.3470   15.7300 O.2   129  TYR129     -0.2864
    215  CB        16.3660   16.3480   16.8350 C.3   129  TYR129      0.0560
    216  CG        15.6930   16.6370   18.1550 C.ar  129  TYR129     -0.0198
    217  CD1       14.6030   15.8770   18.5850 C.ar  129  TYR129     -0.0009
    218  CD2       16.1530   17.6650   18.9800 C.ar  129  TYR129     -0.0009
    219  CE1       13.9850   16.1300   19.8030 C.ar  129  TYR129      0.0417
    220  CE2       15.5370   17.9260   20.2070 C.ar  129  TYR129      0.0417
    221  CZ        14.4530   17.1550   20.6040 C.ar  129  TYR129      0.1957
    222  OH        13.8350   17.4130   21.8070 O.3   129  TYR129     -0.2866
@<TRIPOS>BOND
     1     3     4    2
     2     3     2    1
     3     1     2    1
     4     2     5    1
     5     5     6    1
     6     7     6   ar
     7     7     9   ar
     8   106   107    1
     9     6     8   ar
    10   108   107    1
    11   108   109    2
    12   107   110    1
    13     9    11   ar
    14   151   150    2
    15     8    10   ar
    16   112   111    1
    17   140   139    2
    18   160   159    2
    19   110   111    1
    20   161   162    1
    21   161   158    1
    22   148   149    1
    23   164   162   ar
    24   164   166   ar
    25   162   163   ar
    26    98    97    2
    27    11    10   ar
    28    11    12    1
    29   111   113    1
    30   139   138    1
    31   150   149    1
    32   166   165   ar
    33   163   165   ar
    34   157   158    1
    35   159   158    1
    36   152   149    1
    37   152   153    1
    38   155   154    2
    39    93    92    1
    40   137   138    1
    41   153   154    1
    42    97    96    1
    43   138   141    1
    44   154   156   am
    45   175   176   ar
    46   175   173   ar
    47   176   174   ar
    48    92    94    1
    49    92    89    1
    50    90    91    2
    51    90    89    1
    52   173   172   ar
    53    99    96    1
    54    99   100    1
    55   174   172   ar
    56   145   143   ar
    57   145   147   ar
    58    96    95    1
    59   143   142   ar
    60   172   171    1
    61   147   146   ar
    62   142   141    1
    63   142   144   ar
    64    89    88    1
    65   146   144   ar
    66   171   168    1
    67   100   102   ar
    68   100   101   ar
    69    68    69    2
    70    68    67    1
    71   102   104   ar
    72    88    76   am
    73    73    71   am
    74   181   182    1
    75   181   178    1
    76    58    59    1
    77   168   167    1
    78   168   169    1
    79    74    75    1
    80   184   182   ar
    81   101   103   ar
    82    76    77    2
    83    76    75    1
    84   182   183   ar
    85   104   105   ar
    86   178   177    1
    87   178   179    1
    88    71    70    1
    89    71    72    2
    90    67    66    1
    91    67    70    1
    92    66    60   am
    93    59    60    1
    94    59    62    1
    95    60    61    2
    96   169   170    2
    97    52    53    2
    98    52    51    1
    99   209   208    1
   100   186   185    1
   101   186   187    1
   102   186   189    1
   103    75    78    1
   104    50    51    1
   105   185   191    1
   106   187   188    2
   107   179   180    2
   108   103   105   ar
   109   189   190    1
   110    20    18   am
   111    51    54    1
   112    64    62    1
   113   190   191    1
   114   208   210    1
   115   208   205    1
   116    62    63    1
   117   205   204    1
   118   205   206    1
   119    78    79    1
   120    84    86   ar
   121    84    81   ar
   122    54    55    1
   123    86    87   ar
   124    18    17    1
   125    18    19    2
   126    17    14    1
   127   207   206    2
   128    55    57    1
   129    55    56    1
   130    63    65    1
   131    81    79   ar
   132    81    83   ar
   133   206   211   am
   134    79    80   ar
   135   192   193    1
   136    14    13    1
   137    14    15    1
   138    87    85   ar
   139    80    82   ar
   140    83    85   ar
   141    83    82   ar
   142   211   212    1
   143    31    29    1
   144   193   194    1
   145   193   196    1
   146   194   195    2
   147   120   121    1
   148   120   119    1
   149    30    29    1
   150    15    16    2
   151   213   212    1
   152   213   214    2
   153    29    26    1
   154   203   202    1
   155   212   215    1
   156   202   200   ar
   157   202   201   ar
   158   200   198   ar
   159   201   199   ar
   160   198   197   ar
   161   199   197   ar
   162   197   196    1
   163   119   118    1
   164    21    22    1
   165    22    23    1
   166   118   115    1
   167    25    23   am
   168    25    26    1
   169   215   216    1
   170    23    24    2
   171    26    27    1
   172    49    47    1
   173   115   114    1
   174   115   116    1
   175    40    38   ar
   176    40    42   ar
   177    38    37   ar
   178    48    47    1
   179    27    28    2
   180    47    44    1
   181   216   217   ar
   182   216   218   ar
   183   217   219   ar
   184    42    41   ar
   185    37    36    1
   186    37    39   ar
   187    36    33    1
   188   116   117    2
   189   116   122   am
   190   218   220   ar
   191   132   131    2
   192   122   123    1
   193    44    43    1
   194    44    45    1
   195    41    39   ar
   196   136   135    1
   197    46    45    2
   198    43    34   am
   199   219   221   ar
   200   127   126    1
   201    34    33    1
   202    34    35    2
   203   131   130    1
   204    33    32    1
   205   133   130    1
   206   133   134    1
   207   135   134    1
   208   128   126    1
   209   220   221   ar
   210   221   222    1
   211   126   123    1
   212   123   124    1
   213   130   129    1
   214   124   125    2
