@<TRIPOS>MOLECULE
tmp/2f9aA00.pdb
 165 158 0 0 0
SMALL
GASTEIGER

@<TRIPOS>ATOM
      1  N         22.3390   11.9880   26.7380 N.3    82  GLU82      -0.1245
      2  CA        23.6070   11.9600   27.4890 C.3    82  GLU82       0.1567
      3  C         24.3960   13.2730   27.3030 C.2    82  GLU82       0.2260
      4  O         25.5600   13.3480   27.6710 O.2    82  GLU82      -0.2867
      5  CB        24.4700   10.7430   27.1130 C.3    82  GLU82       0.0388
      6  CG        24.8870   10.6990   25.6310 C.3    82  GLU82       0.1160
      7  CD        25.7560    9.4990   25.2780 C.2    82  GLU82       0.3649
      8  OE1       26.6760    9.1650   26.0430 O.co2  82  GLU82      -0.2457
      9  OE2       25.5270    8.8840   24.2220 O.co2  82  GLU82      -0.2457
     10  N         23.8600    6.6160   28.5310 N.3   115  ALA115     -0.1231
     11  CA        24.6310    6.6150   27.2730 C.3   115  ALA115      0.1694
     12  C         23.7520    6.8530   26.0680 C.2   115  ALA115      0.2589
     13  O         22.7790    7.6070   26.1440 O.2   115  ALA115     -0.2718
     14  CB        25.4010    5.3330   27.1150 C.3   115  ALA115      0.0304
     15  N         23.2110    5.7980   24.9890 N.am  116  CYS116     -0.2023
     16  CA        22.3300    6.1410   23.8840 C.3   116  CYS116      0.1398
     17  C         21.0770    5.2980   24.0560 C.3   116  CYS116      0.2045
     18  O         19.8890    5.9630   23.6310 O.3   116  CYS116     -0.2185
     19  CB        22.9900    5.7610   22.5630 C.3   116  CYS116      0.0930
     20  SG        24.6640    6.2940   22.4630 S.3   116  CYS116     -0.0802
     21  N         32.7240    2.3040   27.0980 N.3   191  PHE191     -0.1241
     22  CA        32.6810    3.5680   26.4030 C.3   191  PHE191      0.1605
     23  C         32.0000    4.4800   27.4110 C.2   191  PHE191      0.2264
     24  O         30.8190    4.3020   27.7180 O.2   191  PHE191     -0.2867
     25  CB        31.8530    3.4170   25.1210 C.3   191  PHE191      0.0534
     26  CG        31.8530    4.6280   24.2140 C.ar  191  PHE191     -0.0203
     27  CD1       31.9750    4.4630   22.8330 C.ar  191  PHE191     -0.0042
     28  CD2       31.7130    5.9240   24.7170 C.ar  191  PHE191     -0.0042
     29  CE1       31.9650    5.5670   21.9710 C.ar  191  PHE191     -0.0003
     30  CE2       31.7030    7.0290   23.8630 C.ar  191  PHE191     -0.0003
     31  CZ        31.8300    6.8510   22.4950 C.ar  191  PHE191     -0.0000
     32  N         37.3370    5.1360   25.5540 N.3   203  VAL203     -0.1245
     33  CA        36.8310    3.9690   24.8250 C.3   203  VAL203      0.1561
     34  C         37.7780    2.7740   24.9770 C.2   203  VAL203      0.2260
     35  O         38.9860    2.9060   24.8000 O.2   203  VAL203     -0.2867
     36  CB        36.5880    4.2750   23.3150 C.3   203  VAL203      0.0252
     37  CG1       35.9820    3.0540   22.6090 C.3   203  VAL203      0.0019
     38  CG2       35.6780    5.5090   23.1350 C.3   203  VAL203      0.0019
     39  N         38.0070   -0.3190   23.0260 N.3   205  GLY205     -0.1225
     40  CA        37.4770   -0.9260   21.7930 C.3   205  GLY205      0.1811
     41  C         37.1670   -2.4170   21.8260 C.2   205  GLY205      0.2280
     42  O         36.1150   -2.8600   21.3550 O.2   205  GLY205     -0.2866
     43  N         34.3840   -3.0860   24.2840 N.3   208  SER208     -0.1202
     44  CA        33.1760   -2.5610   23.6300 C.3   208  SER208      0.2020
     45  C         32.5920   -3.5640   22.6320 C.2   208  SER208      0.2618
     46  O         31.3790   -3.7830   22.5880 O.2   208  SER208     -0.2717
     47  CB        33.4690   -1.2430   22.9110 C.3   208  SER208      0.2103
     48  OG        33.6820   -0.1860   23.8250 O.3   208  SER208     -0.2182
     49  N         33.4840   -4.1520   21.8320 N.am  209  GLN209     -0.1979
     50  CA        33.1840   -5.2380   20.9020 C.3   209  GLN209      0.1601
     51  C         32.4680   -6.4170   21.5950 C.2   209  GLN209      0.2287
     52  O         31.3760   -6.8020   21.1940 O.2   209  GLN209     -0.2864
     53  CB        34.4970   -5.6810   20.2280 C.3   209  GLN209      0.0394
     54  CG        34.5490   -7.1300   19.6720 C.3   209  GLN209      0.0908
     55  CD        34.1450   -7.2060   18.2000 C.2   209  GLN209      0.2608
     56  OE1       35.0000   -7.2610   17.3080 O.2   209  GLN209     -0.2717
     57  NE2       32.8390   -7.1850   17.9410 N.am  209  GLN209     -0.0878
     58  N         29.0120   -5.3140   23.5890 N.3   212  TYR212     -0.1227
     59  CA        27.8940   -5.0540   22.6990 C.3   212  TYR212      0.1736
     60  C         27.2890   -6.3740   22.1750 C.2   212  TYR212      0.2595
     61  O         26.0700   -6.5440   22.1700 O.2   212  TYR212     -0.2718
     62  CB        28.3090   -4.1510   21.5450 C.3   212  TYR212      0.0548
     63  CG        27.1830   -3.8980   20.5730 C.ar  212  TYR212     -0.0200
     64  CD1       26.9530   -4.7540   19.4780 C.ar  212  TYR212     -0.0009
     65  CD2       26.3200   -2.8180   20.7560 C.ar  212  TYR212     -0.0009
     66  CE1       25.8850   -4.5290   18.5940 C.ar  212  TYR212      0.0417
     67  CE2       25.2750   -2.5810   19.8760 C.ar  212  TYR212      0.0417
     68  CZ        25.0600   -3.4390   18.8030 C.ar  212  TYR212      0.1957
     69  OH        24.0090   -3.1740   17.9690 O.3   212  TYR212     -0.2866
     70  N         28.1340   -7.3070   21.7420 N.am  213  LEU213     -0.1980
     71  CA        27.6290   -8.5610   21.1840 C.3   213  LEU213      0.1596
     72  C         26.9510   -9.4190   22.2580 C.2   213  LEU213      0.2287
     73  O         25.9230  -10.0400   21.9890 O.2   213  LEU213     -0.2864
     74  CB        28.7390   -9.3230   20.4390 C.3   213  LEU213      0.0297
     75  CG        28.9090   -9.2430   18.8950 C.3   213  LEU213      0.0022
     76  CD1       28.0710   -8.2390   18.1310 C.3   213  LEU213      0.0001
     77  CD2       30.3870   -9.1420   18.4880 C.3   213  LEU213      0.0001
     78  N         19.9960    0.6700   17.1260 N.3   246  HIS246     -0.1241
     79  CA        20.8080    1.8290   17.4530 C.3   246  HIS246      0.1621
     80  C         21.8250    1.9590   16.3200 C.2   246  HIS246      0.2264
     81  O         22.4890    0.9800   15.9820 O.2   246  HIS246     -0.2867
     82  CB        21.4980    1.6360   18.8130 C.3   246  HIS246      0.0745
     83  CG        22.5480    2.6660   19.1310 C.ar  246  HIS246      0.0817
     84  ND1       22.3170    4.0260   19.0480 N.ar  246  HIS246     -0.2268
     85  CD2       23.8270    2.5280   19.5640 C.ar  246  HIS246      0.1154
     86  CE1       23.4210    4.6750   19.3860 C.ar  246  HIS246      0.1986
     87  NE2       24.3480    3.7920   19.7170 N.ar  246  HIS246     -0.2212
     88  N         24.7410    4.2780   15.3810 N.3   248  PRO248     -0.2102
     89  CA        25.7020    5.3830   15.4350 C.3   248  PRO248      0.1504
     90  C         26.4350    5.5150   14.0810 C.2   248  PRO248      0.2575
     91  O         26.6850    6.6340   13.5930 O.2   248  PRO248     -0.2718
     92  CB        26.6460    4.9880   16.5810 C.3   248  PRO248      0.0282
     93  CG        26.4080    3.5350   16.8340 C.3   248  PRO248      0.0208
     94  CD        25.0890    3.1620   16.2860 C.3   248  PRO248      0.0893
     95  N         26.7300    4.3650   13.4760 N.am  249  TYR249     -0.1977
     96  CA        27.3380    4.2790   12.1410 C.3   249  TYR249      0.1639
     97  C         26.8170    2.9990   11.4770 C.2   249  TYR249      0.2290
     98  O         26.6150    1.9870   12.1680 O.2   249  TYR249     -0.2864
     99  CB        28.8670    4.2830   12.2360 C.3   249  TYR249      0.0560
    100  CG        29.4710    3.1490   13.0490 C.ar  249  TYR249     -0.0198
    101  CD1       29.6050    3.2490   14.4450 C.ar  249  TYR249     -0.0009
    102  CD2       29.9260    1.9870   12.4220 C.ar  249  TYR249     -0.0009
    103  CE1       30.1640    2.2190   15.1940 C.ar  249  TYR249      0.0417
    104  CE2       30.4920    0.9450   13.1600 C.ar  249  TYR249      0.0417
    105  CZ        30.6070    1.0700   14.5490 C.ar  249  TYR249      0.1957
    106  OH        31.1650    0.0300   15.2790 O.3   249  TYR249     -0.2866
    107  N         27.8380   -0.8240   12.0220 N.3   252  LEU252     -0.1245
    108  CA        27.3160   -1.5050   13.2150 C.3   252  LEU252      0.1561
    109  C         25.9470   -2.1560   12.9440 C.2   252  LEU252      0.2260
    110  O         25.7160   -3.3030   13.3380 O.2   252  LEU252     -0.2867
    111  CB        27.2350   -0.5670   14.4270 C.3   252  LEU252      0.0270
    112  CG        27.0110   -1.3590   15.7280 C.3   252  LEU252      0.0019
    113  CD1       28.2570   -2.1730   16.1050 C.3   252  LEU252      0.0001
    114  CD2       26.5850   -0.5000   16.8800 C.3   252  LEU252      0.0001
    115  N         26.4970   -5.4370   10.8970 N.3   255  LYS255     -0.1245
    116  CA        27.0410   -6.5210   11.7400 C.3   255  LYS255      0.1561
    117  C         26.0160   -7.0850   12.7100 C.2   255  LYS255      0.2260
    118  O         25.9830   -8.2930   12.9620 O.2   255  LYS255     -0.2867
    119  CB        28.2200   -6.0430   12.5820 C.3   255  LYS255      0.0271
    120  CG        29.2830   -5.2720   11.8460 C.3   255  LYS255      0.0035
    121  CD        30.3380   -6.1640   11.2410 C.3   255  LYS255      0.0206
    122  CE        31.4020   -5.3520   10.4870 C.3   255  LYS255      0.1093
    123  NZ        31.9830   -4.2570   11.3150 N.3   255  LYS255     -0.1314
    124  N         25.7150   10.0360   13.9250 N.3   279  ASN279     -0.1240
    125  CA        25.3920    9.4510   15.2190 C.3   279  ASN279      0.1653
    126  C         24.4860   10.3820   15.9850 C.2   279  ASN279      0.2266
    127  O         24.8540   11.5190   16.2430 O.2   279  ASN279     -0.2867
    128  CB        26.6750    9.2270   16.0240 C.3   279  ASN279      0.1155
    129  CG        26.4720    8.3250   17.2380 C.2   279  ASN279      0.2627
    130  OD1       25.3500    8.0160   17.6450 O.2   279  ASN279     -0.2716
    131  ND2       27.5760    7.9130   17.8270 N.am  279  ASN279     -0.0877
    132  N         22.9800    9.2970   18.9270 N.3   281  TYR281     -0.1241
    133  CA        22.9920    8.8130   20.3100 C.3   281  TYR281      0.1605
    134  C         21.6100    8.3470   20.7650 C.2   281  TYR281      0.2264
    135  O         21.0810    7.3870   20.2110 O.2   281  TYR281     -0.2867
    136  CB        23.6400    9.8500   21.2440 C.3   281  TYR281      0.0534
    137  CG        24.9560   10.3060   20.6630 C.ar  281  TYR281     -0.0201
    138  CD1       26.1570    9.6520   20.9770 C.ar  281  TYR281     -0.0009
    139  CD2       24.9950   11.3450   19.7190 C.ar  281  TYR281     -0.0009
    140  CE1       27.3760   10.0560   20.3830 C.ar  281  TYR281      0.0417
    141  CE2       26.1950   11.7440   19.1200 C.ar  281  TYR281      0.0417
    142  CZ        27.3720   11.1040   19.4600 C.ar  281  TYR281      0.1957
    143  OH        28.5190   11.5240   18.8530 O.3   281  TYR281     -0.2866
    144  N         20.6580    0.1070   22.4640 N.3   310  TYR310     -0.1227
    145  CA        21.8690   -0.0960   23.2340 C.3   310  TYR310      0.1736
    146  C         22.3220    1.2130   23.8430 C.2   310  TYR310      0.2596
    147  O         21.9980    2.2780   23.3340 O.2   310  TYR310     -0.2718
    148  CB        22.9740   -0.6560   22.3540 C.3   310  TYR310      0.0548
    149  CG        24.1840   -1.0980   23.1340 C.ar  310  TYR310     -0.0200
    150  CD1       24.2000   -2.3200   23.8060 C.ar  310  TYR310     -0.0009
    151  CD2       25.3130   -0.2850   23.2150 C.ar  310  TYR310     -0.0009
    152  CE1       25.3260   -2.7270   24.5350 C.ar  310  TYR310      0.0417
    153  CE2       26.4510   -0.6820   23.9420 C.ar  310  TYR310      0.0417
    154  CZ        26.4510   -1.9060   24.5880 C.ar  310  TYR310      0.1957
    155  OH        27.5810   -2.2910   25.3010 O.3   310  TYR310     -0.2866
    156  N         23.0500    1.1100   24.9480 N.am  311  GLY311     -0.1942
    157  CA        23.7720    2.2210   25.5680 C.3   311  GLY311      0.2014
    158  C         24.9400    1.5990   26.3170 C.2   311  GLY311      0.2639
    159  O         24.7320    0.6450   27.0980 O.2   311  GLY311     -0.2714
    160  N         26.1560    2.1030   26.0600 N.am  312  SER312     -0.1949
    161  CA        27.4030    1.6190   26.7070 C.3   312  SER312      0.1924
    162  C         27.3510    1.7260   28.2170 C.2   312  SER312      0.2314
    163  O         26.6980    2.6190   28.7510 O.2   312  SER312     -0.2863
    164  CB        28.6050    2.4460   26.2490 C.3   312  SER312      0.2116
    165  OG        28.7040    2.4540   24.8420 O.3   312  SER312     -0.2180
@<TRIPOS>BOND
     1   122   121    1
     2   122   123    1
     3   115   116    1
     4   121   120    1
     5    97    96    1
     6    97    98    2
     7   116   119    1
     8   116   117    1
     9   120   119    1
    10   107   108    1
    11    96    99    1
    12    96    95    1
    13    99   100    1
    14   102   100   ar
    15   102   104   ar
    16   117   118    2
    17   109   108    1
    18   109   110    2
    19   100   101   ar
    20   104   105   ar
    21   108   111    1
    22    95    90   am
    23    91    90    2
    24   124   125    1
    25    90    89    1
    26   111   112    1
    27   101   103   ar
    28   105   103   ar
    29   105   106    1
    30   125   126    1
    31   125   128    1
    32    88    89    1
    33    88    94    1
    34    89    92    1
    35   112   113    1
    36   112   114    1
    37    81    80    2
    38   126   127    2
    39   128   129    1
    40    94    93    1
    41    80    79    1
    42    92    93    1
    43    78    79    1
    44   129   130    2
    45   129   131   am
    46    56    55    2
    47    79    82    1
    48    57    55   am
    49    69    68    1
    50    76    75    1
    51    55    54    1
    52    77    75    1
    53    66    68   ar
    54    66    64   ar
    55    68    67   ar
    56    82    83    1
    57   143   142    1
    58    75    74    1
    59   132   133    1
    60    84    83   ar
    61    84    86   ar
    62   141   142   ar
    63   141   139   ar
    64    83    85   ar
    65    86    87   ar
    66   142   140   ar
    67    64    63   ar
    68    85    87   ar
    69    54    53    1
    70   139   137   ar
    71    67    65   ar
    72   135   134    2
    73    53    50    1
    74   133   134    1
    75   133   136    1
    76   140   138   ar
    77    74    71    1
    78    63    65   ar
    79    63    62    1
    80   137   138   ar
    81   137   136    1
    82    50    51    1
    83    50    49    1
    84    71    70    1
    85    71    72    1
    86    52    51    2
    87    42    41    2
    88    62    59    1
    89    70    60   am
    90    40    41    1
    91    40    39    1
    92    49    45   am
    93    29    31   ar
    94    29    27   ar
    95    73    72    2
    96    61    60    2
    97    60    59    1
    98   148   149    1
    99   148   145    1
   100    20    19    1
   101   144   145    1
   102    31    30   ar
   103    19    16    1
   104    46    45    2
   105    37    36    1
   106    45    44    1
   107    59    58    1
   108    27    26   ar
   109    47    44    1
   110    47    48    1
   111   149   151   ar
   112   149   150   ar
   113    38    36    1
   114   151   153   ar
   115   145   146    1
   116    36    33    1
   117   147   146    2
   118    44    43    1
   119    18    17    1
   120   150   152   ar
   121   146   156   am
   122    30    28   ar
   123    16    17    1
   124    16    15    1
   125   153   154   ar
   126    26    28   ar
   127    26    25    1
   128     9     7   ar
   129   152   154   ar
   130   154   155    1
   131    35    34    2
   132    33    34    1
   133    33    32    1
   134   165   164    1
   135   156   157    1
   136    15    12   am
   137    25    22    1
   138     7     6    1
   139     7     8   ar
   140   157   158    1
   141     6     5    1
   142   160   158   am
   143   160   161    1
   144    12    13    2
   145    12    11    1
   146   164   161    1
   147   158   159    2
   148    22    21    1
   149    22    23    1
   150   161   162    1
   151     1     2    1
   152     5     2    1
   153    14    11    1
   154    11    10    1
   155     3     2    1
   156     3     4    2
   157    23    24    2
   158   162   163    2
