@<TRIPOS>MOLECULE
tmp/2f9bB00.pdb
 148 146 0 0 0
SMALL
GASTEIGER

@<TRIPOS>ATOM
      1  N         51.1730   -1.4230    1.1660 N.3    25  LEU25      -0.1231
      2  CA        52.1220   -1.3540    2.3070 C.3    25  LEU25       0.1693
      3  C         51.2080   -1.6870    3.4870 C.2    25  LEU25       0.2592
      4  O         51.0570   -2.8390    3.8460 O.2    25  LEU25      -0.2718
      5  CB        52.6900    0.0810    2.3270 C.3    25  LEU25       0.0284
      6  CG        53.6840    0.2830    3.4660 C.3    25  LEU25       0.0019
      7  CD1       54.9620   -0.5110    3.2190 C.3    25  LEU25       0.0001
      8  CD2       54.0830    1.7390    3.5720 C.3    25  LEU25       0.0001
      9  N         50.6050   -0.6840    4.0460 N.am   26  CYS26      -0.1970
     10  CA        49.6900   -0.8720    5.2040 C.3    26  CYS26       0.1712
     11  C         48.4130   -0.1120    4.9350 C.2    26  CYS26       0.2296
     12  O         48.1070    0.2490    3.8110 O.2    26  CYS26      -0.2864
     13  CB        50.4340   -0.3560    6.4810 C.3    26  CYS26       0.0983
     14  SG        51.8060   -1.4110    6.9980 S.3    26  CYS26      -0.0798
     15  N         55.7540    0.0260   12.2240 N.3    41  HIS41      -0.1226
     16  CA        56.5870   -1.0350   11.5450 C.3    41  HIS41       0.1752
     17  C         56.4760   -0.9730   10.0290 C.2    41  HIS41       0.2596
     18  O         57.4280   -1.3560    9.3850 O.2    41  HIS41      -0.2718
     19  CB        56.2400   -2.5280   11.9650 C.3    41  HIS41       0.0759
     20  CG        54.8530   -3.0240   11.7130 C.ar   41  HIS41       0.0818
     21  ND1       53.9170   -3.0200   12.6060 N.ar   41  HIS41      -0.2268
     22  CD2       54.3030   -3.5600   10.5600 C.ar   41  HIS41       0.1154
     23  CE1       52.8300   -3.5080   12.0880 C.ar   41  HIS41       0.1986
     24  NE2       53.0500   -3.8400   10.8520 N.ar   41  HIS41      -0.2212
     25  N         55.3800   -0.5050    9.4900 N.am   42  CYS42      -0.1970
     26  CA        55.2560   -0.4270    8.0100 C.3    42  CYS42       0.1712
     27  C         56.3850    0.3500    7.3800 C.2    42  CYS42       0.2296
     28  O         56.5590    0.3650    6.1790 O.2    42  CYS42      -0.2864
     29  CB        54.0640    0.2580    7.6660 C.3    42  CYS42       0.0983
     30  SG        52.6280   -0.3810    8.5120 S.3    42  CYS42      -0.0798
     31  N         59.4830   -0.1170    8.3330 N.3    44  ASP44      -0.1225
     32  CA        60.7270   -0.7810    8.8060 C.3    44  ASP44       0.1805
     33  C         61.5860   -1.1280    7.6340 C.2    44  ASP44       0.2598
     34  O         62.7910   -1.1340    7.7800 O.2    44  ASP44      -0.2718
     35  CB        60.4110   -2.0770    9.5880 C.3    44  ASP44       0.1424
     36  CG        60.0440   -1.8260   11.0770 C.2    44  ASP44       0.3668
     37  OD1       60.4320   -0.7980   11.6150 O.co2  44  ASP44      -0.2456
     38  OD2       59.3910   -2.7080   11.6090 O.co2  44  ASP44      -0.2456
     39  N         60.9890   -1.4200    6.5150 N.am   45  LYS45      -0.1966
     40  CA        61.8210   -1.7660    5.3260 C.3    45  LYS45       0.1728
     41  C         61.5000   -0.8010    4.1630 C.2    45  LYS45       0.2616
     42  O         61.0840   -1.2190    3.0970 O.2    45  LYS45      -0.2715
     43  CB        61.4980   -3.2050    4.9560 C.3    45  LYS45       0.0311
     44  CG        61.6310   -4.1390    6.2050 C.3    45  LYS45       0.0038
     45  CD        61.2030   -5.5680    5.8080 C.3    45  LYS45       0.0206
     46  CE        59.6780   -5.5710    5.3780 C.3    45  LYS45       0.1093
     47  NZ        59.2910   -6.8880    4.8010 N.3    45  LYS45      -0.1314
     48  N         61.6940    0.4720    4.3660 N.am   46  ILE46      -0.1977
     49  CA        61.3980    1.4400    3.2720 C.3    46  ILE46       0.1596
     50  C         62.6810    2.1400    2.9520 C.2    46  ILE46       0.2287
     51  O         63.2550    2.8200    3.7810 O.2    46  ILE46      -0.2864
     52  CB        60.3610    2.5170    3.7010 C.3    46  ILE46       0.0276
     53  CG1       59.0350    1.8580    4.1350 C.3    46  ILE46       0.0022
     54  CG2       60.0910    3.5300    2.5500 C.3    46  ILE46       0.0022
     55  CD1       58.3300    1.1510    2.9780 C.3    46  ILE46       0.0001
     56  N         39.3270  -11.6890   13.2910 N.3   186  ASP186     -0.1225
     57  CA        40.5710  -10.9550   13.7370 C.3   186  ASP186      0.1805
     58  C         41.0210  -10.0490   12.6300 C.2   186  ASP186      0.2598
     59  O         40.5070  -10.1170   11.5300 O.2   186  ASP186     -0.2718
     60  CB        41.7540  -11.9410   14.0630 C.3   186  ASP186      0.1424
     61  CG        42.9530  -11.2770   14.8330 C.2   186  ASP186      0.3668
     62  OD1       42.6300  -10.5830   15.7810 O.co2 186  ASP186     -0.2456
     63  OD2       44.1130  -11.4830   14.4730 O.co2 186  ASP186     -0.2456
     64  N         41.9710   -9.2300   12.9510 N.am  187  SER187     -0.1938
     65  CA        42.5670   -8.2720   12.0000 C.3   187  SER187      0.2055
     66  C         43.5840   -9.2630   11.3430 C.2   187  SER187      0.2643
     67  O         43.6250  -10.4140   11.7510 O.2   187  SER187     -0.2714
     68  CB        43.2430   -7.1270   12.8200 C.3   187  SER187      0.2130
     69  OG        43.8750   -7.8290   13.8880 O.3   187  SER187     -0.2179
     70  N         44.3810   -8.8820   10.3740 N.am  188  CYS188     -0.1953
     71  CA        45.3230   -9.8910    9.7850 C.3   188  CYS188      0.1843
     72  C         46.4130   -9.1790    9.0270 C.2   188  CYS188      0.2625
     73  O         46.3610   -7.9710    8.8810 O.2   188  CYS188     -0.2714
     74  CB        44.5440  -10.8460    8.8160 C.3   188  CYS188      0.0997
     75  SG        45.2700  -12.4660    8.4700 S.3   188  CYS188     -0.0797
     76  N         47.3450   -9.9440    8.5540 N.am  189  LYS189     -0.1963
     77  CA        48.4670   -9.3600    7.7950 C.3   189  LYS189      0.1728
     78  C         47.7850   -8.6410    6.6630 C.2   189  LYS189      0.2616
     79  O         46.8620   -9.1460    6.0440 O.2   189  LYS189     -0.2715
     80  CB        49.4060  -10.4620    7.2510 C.3   189  LYS189      0.0311
     81  CG        50.5640   -9.8110    6.5000 C.3   189  LYS189      0.0038
     82  CD        51.6240  -10.8660    6.1150 C.3   189  LYS189      0.0206
     83  CE        52.8470  -10.1000    5.5280 C.3   189  LYS189      0.1093
     84  NZ        54.0220  -11.0080    5.3950 N.3   189  LYS189     -0.1314
     85  N         48.2730   -7.4580    6.4510 N.am  190  GLY190     -0.1955
     86  CA        47.7150   -6.5990    5.3720 C.3   190  GLY190      0.1869
     87  C         46.8570   -5.4900    5.9850 C.2   190  GLY190      0.2309
     88  O         46.6250   -4.4940    5.3230 O.2   190  GLY190     -0.2863
     89  N         47.6500   -4.0760    8.9820 N.3   192  SER192     -0.1217
     90  CA        48.5500   -3.2130    9.7990 C.3   192  SER192      0.1889
     91  C         48.3360   -1.6980    9.6180 C.2   192  SER192      0.2288
     92  O         48.1870   -1.3230    8.4760 O.2   192  SER192     -0.2866
     93  CB        49.9930   -3.4640    9.4220 C.3   192  SER192      0.2089
     94  OG        50.2650   -4.8620    9.6110 O.3   192  SER192     -0.2183
     95  N         45.6390   -0.9600   14.2860 N.3   210  VAL210     -0.1231
     96  CA        45.9190   -2.4220   14.0520 C.3   210  VAL210      0.1692
     97  C         47.4250   -2.6180   14.1060 C.2   210  VAL210      0.2593
     98  O         48.1160   -2.1760   13.2080 O.2   210  VAL210     -0.2718
     99  CB        45.4360   -2.8680   12.6440 C.3   210  VAL210      0.0266
    100  CG1       45.9660   -4.2780   12.3470 C.3   210  VAL210      0.0020
    101  CG2       43.8830   -2.8580   12.4350 C.3   210  VAL210      0.0020
    102  N         47.9070   -3.2640   15.1120 N.am  211  SER211     -0.1938
    103  CA        49.3820   -3.4900   15.2180 C.3   211  SER211      0.2055
    104  C         49.5190   -4.9470   14.7790 C.2   211  SER211      0.2643
    105  O         48.5730   -5.5500   14.3200 O.2   211  SER211     -0.2714
    106  CB        49.8070   -3.2720   16.6940 C.3   211  SER211      0.2130
    107  OG        51.2370   -3.3190   16.7350 O.3   211  SER211     -0.2179
    108  N         50.6780   -5.4880   14.9380 N.am  212  TRP212     -0.1959
    109  CA        50.8840   -6.8940   14.5290 C.3   212  TRP212      0.1771
    110  C         51.1930   -7.6940   15.7640 C.2   212  TRP212      0.2620
    111  O         52.3260   -7.7910   16.1870 O.2   212  TRP212     -0.2715
    112  CB        52.0410   -6.9860   13.4870 C.3   212  TRP212      0.0590
    113  CG        53.3680   -6.2790   13.8380 C.ar  212  TRP212      0.0006
    114  CD1       53.6730   -5.3530   14.8110 C.ar  212  TRP212      0.0946
    115  CD2       54.4820   -6.5100   13.1540 C.ar  212  TRP212      0.0152
    116  NE1       54.9590   -5.1060   14.6240 N.ar  212  TRP212     -0.2442
    117  CE2       55.5360   -5.7580   13.6440 C.ar  212  TRP212      0.0810
    118  CE3       54.6650   -7.3640   12.0910 C.ar  212  TRP212      0.0012
    119  CZ2       56.7900   -5.8470   13.0710 C.ar  212  TRP212      0.0191
    120  CZ3       55.9190   -7.4640   11.5060 C.ar  212  TRP212      0.0001
    121  CH2       56.9800   -6.7050   11.9950 C.ar  212  TRP212      0.0015
    122  N         50.1790   -8.2410   16.3510 N.am  213  GLY213     -0.1940
    123  CA        50.3440   -9.0640   17.5740 C.3   213  GLY213      0.2014
    124  C         49.4340  -10.2060   17.1940 C.2   213  GLY213      0.2639
    125  O         48.2760   -9.9210   16.9500 O.2   213  GLY213     -0.2714
    126  N         49.9600  -11.4090   17.1380 N.am  214  GLN214     -0.1963
    127  CA        49.1850  -12.6520   16.7740 C.3   214  GLN214      0.1733
    128  C         49.3630  -12.7890   15.2480 C.2   214  GLN214      0.2617
    129  O         48.8870  -11.9210   14.5450 O.2   214  GLN214     -0.2715
    130  CB        47.6670  -12.5230   17.0400 C.3   214  GLN214      0.0408
    131  CG        47.0870  -13.8740   17.3860 C.3   214  GLN214      0.0908
    132  CD        45.5880  -13.8520   17.1480 C.2   214  GLN214      0.2608
    133  OE1       44.9170  -14.8360   17.3430 O.2   214  GLN214     -0.2717
    134  NE2       44.9730  -12.7900   16.7260 N.am  214  GLN214     -0.0878
    135  N         50.0220  -13.8160   14.7730 N.am  215  GLY215     -0.1940
    136  CA        50.2230  -14.0030   13.2830 C.3   215  GLY215      0.2014
    137  C         49.0200  -13.4980   12.4640 C.2   215  GLY215      0.2639
    138  O         49.1860  -12.8180   11.4630 O.2   215  GLY215     -0.2714
    139  N         47.8720  -13.8870   12.9670 N.am  216  CYS216     -0.1967
    140  CA        46.5080  -13.5750   12.4280 C.3   216  CYS216      0.1712
    141  C         45.6160  -14.7050   12.9800 C.2   216  CYS216      0.2296
    142  O         46.0930  -15.7960   13.2120 O.2   216  CYS216     -0.2864
    143  CB        46.4780  -13.6160   10.8920 C.3   216  CYS216      0.0983
    144  SG        44.8370  -13.4830   10.1530 S.3   216  CYS216     -0.0798
    145  N         43.7010  -10.0490   19.2460 N.3   223  GLY223     -0.1225
    146  CA        44.5260   -9.1340   18.4400 C.3   223  GLY223      0.1811
    147  C         44.8530   -7.9870   19.3510 C.2   223  GLY223      0.2280
    148  O         44.0150   -7.5960   20.1500 O.2   223  GLY223     -0.2866
@<TRIPOS>BOND
     1     1     2    1
     2     2     5    1
     3     2     3    1
     4     5     6    1
     5    54    52    1
     6    50    49    1
     7    50    51    2
     8    55    53    1
     9    42    41    2
    10     7     6    1
    11    49    52    1
    12    49    48    1
    13     6     8    1
    14     3     4    2
    15     3     9   am
    16    52    53    1
    17    12    11    2
    18     9    10    1
    19    41    48   am
    20    41    40    1
    21    47    46    1
    22    11    10    1
    23    43    40    1
    24    43    44    1
    25    10    13    1
    26    88    87    2
    27    40    39    1
    28    86    87    1
    29    86    85    1
    30    46    45    1
    31    84    83    1
    32    83    82    1
    33    45    44    1
    34    79    78    2
    35    82    81    1
    36    28    27    2
    37    85    78   am
    38    13    14    1
    39    81    80    1
    40    39    33   am
    41    78    77    1
    42    14    30    1
    43    80    77    1
    44    27    26    1
    45    33    34    2
    46    33    32    1
    47    29    26    1
    48    29    30    1
    49    77    76    1
    50    26    25    1
    51    31    32    1
    52    75    74    1
    53    75   144    1
    54    92    91    2
    55    76    72   am
    56    32    35    1
    57    74    71    1
    58    73    72    2
    59    89    90    1
    60    72    71    1
    61    18    17    2
    62    93    94    1
    63    93    90    1
    64    25    17   am
    65    35    36    1
    66    91    90    1
    67    71    70    1
    68    17    16    1
    69   144   143    1
    70    70    66   am
    71    22    24   ar
    72    22    20   ar
    73    24    23   ar
    74   143   140    1
    75    36    38   ar
    76    36    37   ar
    77    66    67    2
    78    66    65    1
    79   138   137    2
    80   120   121   ar
    81   120   118   ar
    82    59    58    2
    83    16    19    1
    84    16    15    1
    85    20    19    1
    86    20    21   ar
    87   121   119   ar
    88    65    68    1
    89    65    64    1
    90    23    21   ar
    91   118   115   ar
    92   100    99    1
    93   140   139    1
    94   140   141    1
    95   101    99    1
    96   137   139   am
    97   137   136    1
    98    58    64   am
    99    58    57    1
   100    99    96    1
   101    68    69    1
   102   141   142    2
   103   119   117   ar
   104   115   117   ar
   105   115   113   ar
   106    98    97    2
   107   136   135    1
   108    56    57    1
   109   112   113    1
   110   112   109    1
   111   117   116   ar
   112    57    60    1
   113   113   114   ar
   114    96    97    1
   115    96    95    1
   116    60    61    1
   117    97   102   am
   118   105   104    2
   119    63    61   ar
   120   109   108    1
   121   109   110    1
   122   129   128    2
   123   116   114   ar
   124   135   128   am
   125   104   108   am
   126   104   103    1
   127    61    62   ar
   128   102   103    1
   129   103   106    1
   130   128   127    1
   131   110   111    2
   132   110   122   am
   133   122   123    1
   134   106   107    1
   135   134   132   am
   136   127   130    1
   137   127   126    1
   138   125   124    2
   139   130   131    1
   140   126   124   am
   141   132   133    2
   142   132   131    1
   143   124   123    1
   144   146   145    1
   145   146   147    1
   146   147   148    2
