@<TRIPOS>MOLECULE
tmp/2f9mA00.pdb
 167 161 0 0 0
SMALL
GASTEIGER

@<TRIPOS>ATOM
      1  N          7.9830   29.5680   18.3760 N.3    14  SER14      -0.1202
      2  CA         7.4750   29.3590   17.0340 C.3    14  SER14       0.2020
      3  C          8.1790   30.3270   16.1080 C.2    14  SER14       0.2619
      4  O          8.3580   31.4960   16.4440 O.2    14  SER14      -0.2717
      5  CB         5.9620   29.5690   16.9510 C.3    14  SER14       0.2103
      6  OG         5.2800   28.3520   17.2190 O.3    14  SER14      -0.2182
      7  N          8.6000   29.8240   14.9550 N.am   15  GLY15      -0.1942
      8  CA         9.1310   30.6830   13.9090 C.3    15  GLY15       0.2014
      9  C         10.6400   30.7870   13.8790 C.2    15  GLY15       0.2639
     10  O         11.1950   31.3290   12.9300 O.2    15  GLY15      -0.2714
     11  N         11.3100   30.2620   14.9020 N.am   16  VAL16      -0.1963
     12  CA        12.7700   30.4170   15.0090 C.3    16  VAL16       0.1727
     13  C         13.5430   29.5570   14.0070 C.2    16  VAL16       0.2617
     14  O         14.7060   29.8350   13.7200 O.2    16  VAL16      -0.2715
     15  CB        13.2980   30.1780   16.4520 C.3    16  VAL16       0.0290
     16  CG1       12.6350   31.1570   17.4420 C.3    16  VAL16       0.0023
     17  CG2       13.0900   28.7240   16.8800 C.3    16  VAL16       0.0023
     18  N         12.8860   28.5260   13.4740 N.am   17  GLY17      -0.1940
     19  CA        13.4730   27.6760   12.4540 C.3    17  GLY17       0.2014
     20  C         13.7850   26.2480   12.8700 C.2    17  GLY17       0.2639
     21  O         14.5860   25.5840   12.2160 O.2    17  GLY17      -0.2714
     22  N         13.1430   25.7710   13.9360 N.am   18  LYS18      -0.1963
     23  CA        13.3930   24.4190   14.4540 C.3    18  LYS18       0.1728
     24  C         13.1390   23.3610   13.3860 C.2    18  LYS18       0.2617
     25  O         13.9810   22.4990   13.1630 O.2    18  LYS18      -0.2715
     26  CB        12.5170   24.1190   15.6680 C.3    18  LYS18       0.0311
     27  CG        12.7720   25.0090   16.8860 C.3    18  LYS18       0.0038
     28  CD        11.8530   24.6440   18.0330 C.3    18  LYS18       0.0206
     29  CE        10.3760   24.8490   17.7000 C.3    18  LYS18       0.1093
     30  NZ        10.1190   26.2470   17.2610 N.3    18  LYS18      -0.1314
     31  N         11.9850   23.4320   12.7200 N.am   19  SER19      -0.1936
     32  CA        11.6420   22.4190   11.7100 C.3    19  SER19       0.2055
     33  C         12.5500   22.4680   10.5070 C.2    19  SER19       0.2643
     34  O         12.8560   21.4280    9.9220 O.2    19  SER19      -0.2714
     35  CB        10.1820   22.5290   11.2670 C.3    19  SER19       0.2130
     36  OG         9.3430   22.4870   12.4130 O.3    19  SER19      -0.2179
     37  N         12.9860   23.6720   10.1430 N.am   20  ASN20      -0.1971
     38  CA        13.9460   23.8090    9.0620 C.3    20  ASN20       0.1688
     39  C         15.3520   23.3520    9.4190 C.2    20  ASN20       0.2292
     40  O         16.0570   22.8440    8.5720 O.2    20  ASN20      -0.2864
     41  CB        13.9220   25.2080    8.4470 C.3    20  ASN20       0.1181
     42  CG        12.8250   25.3360    7.4070 C.2    20  ASN20       0.2629
     43  OD1       12.9090   24.7280    6.3490 O.2    20  ASN20      -0.2716
     44  ND2       11.7630   26.0690    7.7320 N.am   20  ASN20      -0.0877
     45  N         15.1560   22.7750    2.9620 N.3    30  PHE30      -0.1227
     46  CA        14.7610   23.9840    3.6410 C.3    30  PHE30       0.1736
     47  C         13.5360   24.5100    2.9250 C.2    30  PHE30       0.2595
     48  O         13.4850   24.4960    1.6960 O.2    30  PHE30      -0.2718
     49  CB        15.8810   25.0250    3.5890 C.3    30  PHE30       0.0547
     50  CG        15.4690   26.3650    4.1190 C.ar   30  PHE30      -0.0202
     51  CD1       15.3740   26.5820    5.4960 C.ar   30  PHE30      -0.0042
     52  CD2       15.1510   27.4090    3.2420 C.ar   30  PHE30      -0.0042
     53  CE1       14.9660   27.8120    6.0020 C.ar   30  PHE30      -0.0003
     54  CE2       14.7430   28.6470    3.7320 C.ar   30  PHE30      -0.0003
     55  CZ        14.6430   28.8530    5.1210 C.ar   30  PHE30      -0.0000
     56  N         12.5670   24.9840    3.6990 N.am   31  ASN31      -0.1960
     57  CA        11.3180   25.4900    3.1570 C.3    31  ASN31       0.1819
     58  C         11.0190   26.8800    3.7140 C.2    31  ASN31       0.2621
     59  O         10.8070   27.0550    4.9220 O.2    31  ASN31      -0.2715
     60  CB        10.1790   24.4980    3.4650 C.3    31  ASN31       0.1195
     61  CG         8.8370   24.8970    2.8390 C.2    31  ASN31       0.2630
     62  OD1        8.7370   25.8550    2.0620 O.2    31  ASN31      -0.2716
     63  ND2        7.7900   24.1370    3.1800 N.am   31  ASN31      -0.0877
     64  N         11.0160   27.8610    2.8150 N.am   32  LEU32      -0.1977
     65  CA        10.6850   29.2440    3.1490 C.3    32  LEU32       0.1596
     66  C          9.2600   29.3840    3.6660 C.2    32  LEU32       0.2287
     67  O          8.9660   30.2870    4.4470 O.2    32  LEU32      -0.2864
     68  CB        10.8700   30.1470    1.9250 C.3    32  LEU32       0.0297
     69  CG        12.2930   30.5210    1.5300 C.3    32  LEU32       0.0022
     70  CD1       12.3180   31.0270    0.0880 C.3    32  LEU32       0.0001
     71  CD2       12.8660   31.5700    2.4740 C.3    32  LEU32       0.0001
     72  N          7.3870   27.0140    5.3380 N.3    34  SER34      -0.1202
     73  CA         7.0210   25.9830    6.3050 C.3    34  SER34       0.2020
     74  C          5.9650   26.5310    7.2670 C.2    34  SER34       0.2619
     75  O          6.0420   27.6740    7.7090 O.2    34  SER34      -0.2717
     76  CB         8.2460   25.4690    7.0630 C.3    34  SER34       0.2103
     77  OG         8.8330   26.5090    7.8110 O.3    34  SER34      -0.2182
     78  N          4.9580   25.7180    7.5460 N.am   35  LYS35      -0.1965
     79  CA         3.9350   26.0890    8.4930 C.3    35  LYS35       0.1728
     80  C          4.3720   25.6450    9.8880 C.2    35  LYS35       0.2617
     81  O          5.3170   24.8660   10.0350 O.2    35  LYS35      -0.2715
     82  CB         2.6060   25.4430    8.1060 C.3    35  LYS35       0.0311
     83  CG         1.9440   26.0950    6.8930 C.3    35  LYS35       0.0038
     84  CD         0.8100   25.2310    6.3660 C.3    35  LYS35       0.0206
     85  CE         0.2280   25.8160    5.0830 C.3    35  LYS35       0.1093
     86  NZ        -0.6160   24.8050    4.3640 N.3    35  LYS35      -0.1314
     87  N          3.6900   26.1520   10.9070 N.am   36  SER36      -0.1936
     88  CA         3.9420   25.7030   12.2620 C.3    36  SER36       0.2055
     89  C          3.7580   24.1860   12.3430 C.2    36  SER36       0.2643
     90  O          2.9060   23.6030   11.6560 O.2    36  SER36      -0.2714
     91  CB         3.0300   26.4100   13.2480 C.3    36  SER36       0.2130
     92  OG         3.3960   26.0850   14.5730 O.3    36  SER36      -0.2179
     93  N          4.5710   23.5600   13.1790 N.am   37  THR37      -0.1950
     94  CA         4.6290   22.1170   13.2420 C.3    37  THR37       0.1897
     95  C          3.3690   21.4820   13.8020 C.2    37  THR37       0.2313
     96  O          2.8240   21.9100   14.8310 O.2    37  THR37      -0.2863
     97  CB         5.8670   21.6640   14.0260 C.3    37  THR37       0.1794
     98  OG1        7.0190   22.0890   13.2970 O.3    37  THR37      -0.2208
     99  CG2        5.9020   20.1540   14.2020 C.3    37  THR37       0.0378
    100  N          8.5180   20.0850   17.4830 N.3    61  THR61      -0.1203
    101  CA         7.1430   20.4010   17.8220 C.3    61  THR61       0.1994
    102  C          7.0130   21.9110   17.7670 C.2    61  THR61       0.2618
    103  O          8.0270   22.6230   17.7660 O.2    61  THR61      -0.2717
    104  CB         6.7650   19.8270   19.2150 C.3    61  THR61       0.1784
    105  OG1        5.3420   19.7080   19.3140 O.3    61  THR61      -0.2211
    106  CG2        7.3420   20.6930   20.3670 C.3    61  THR61       0.0376
    107  N          5.7860   22.4110   17.6900 N.am   62  ALA62      -0.1965
    108  CA         5.5920   23.8590   17.5580 C.3    62  ALA62       0.1728
    109  C          6.0260   24.5670   18.8410 C.2    62  ALA62       0.2616
    110  O          5.7870   24.0850   19.9550 O.2    62  ALA62      -0.2715
    111  CB         4.1380   24.1880   17.2120 C.3    62  ALA62       0.0334
    112  N          6.6880   25.7040   18.6880 N.am   63  GLY63      -0.1955
    113  CA         7.2440   26.3900   19.8450 C.3    63  GLY63       0.1869
    114  C          6.2030   27.0960   20.6920 C.2    63  GLY63       0.2309
    115  O          6.3830   27.2490   21.8970 O.2    63  GLY63      -0.2863
    116  N         19.5890   30.7370   15.3130 N.3   118  ASN118     -0.1225
    117  CA        19.2940   30.4580   13.9250 C.3   118  ASN118      0.1785
    118  C         19.0150   31.7180   13.1150 C.2   118  ASN118      0.2597
    119  O         18.8000   32.8030   13.6770 O.2   118  ASN118     -0.2718
    120  CB        18.1300   29.4530   13.8000 C.3   118  ASN118      0.1169
    121  CG        17.9650   28.9190   12.3790 C.2   118  ASN118      0.2627
    122  OD1       18.9350   28.5240   11.7400 O.2   118  ASN118     -0.2716
    123  ND2       16.7240   28.9100   11.8820 N.am  118  ASN118     -0.0877
    124  N         19.0190   31.5440   11.7970 N.am  119  LYS119     -0.1980
    125  CA        18.8110   32.5910   10.7950 C.3   119  LYS119      0.1596
    126  C         19.9890   33.5550   10.6840 C.2   119  LYS119      0.2287
    127  O         19.7890   34.7400   10.4410 O.2   119  LYS119     -0.2864
    128  CB        17.5010   33.3600   11.0000 C.3   119  LYS119      0.0298
    129  CG        16.3020   32.4560   11.2880 C.3   119  LYS119      0.0038
    130  CD        15.0100   33.1330   10.9320 C.3   119  LYS119      0.0206
    131  CE        13.8580   32.2940   11.4740 C.3   119  LYS119      0.1093
    132  NZ        12.5850   33.0200   11.3790 N.3   119  LYS119     -0.1314
    133  N         21.8620   34.0260    8.3890 N.3   121  ASP121     -0.1225
    134  CA        21.8230   34.6420    7.0660 C.3   121  ASP121      0.1805
    135  C         21.1540   36.0110    7.1060 C.2   121  ASP121      0.2597
    136  O         21.3710   36.8310    6.2070 O.2   121  ASP121     -0.2718
    137  CB        21.0890   33.7470    6.0670 C.3   121  ASP121      0.1424
    138  CG        19.6790   33.4460    6.4960 C.2   121  ASP121      0.3668
    139  OD1       19.4950   32.6620    7.4550 O.co2 121  ASP121     -0.2456
    140  OD2       18.7520   34.0110    5.8890 O.co2 121  ASP121     -0.2456
    141  N         20.3710   36.2550    8.1580 N.am  122  LEU122     -0.1979
    142  CA        19.6690   37.5270    8.3480 C.3   122  LEU122      0.1596
    143  C         20.5140   38.5100    9.1510 C.2   122  LEU122      0.2287
    144  O         20.0080   39.2390   10.0110 O.2   122  LEU122     -0.2864
    145  CB        18.3170   37.2950    9.0300 C.3   122  LEU122      0.0297
    146  CG        17.3080   36.4260    8.2730 C.3   122  LEU122      0.0022
    147  CD1       16.0050   36.3430    9.0520 C.3   122  LEU122      0.0001
    148  CD2       17.0470   36.9310    6.8460 C.3   122  LEU122      0.0001
    149  N         22.3000   28.8630   10.0630 N.3   148  SER148     -0.1202
    150  CA        21.2800   29.2590    9.1300 C.3   148  SER148      0.2020
    151  C         20.7660   28.0030    8.4830 C.2   148  SER148      0.2619
    152  O         21.4590   27.3980    7.6680 O.2   148  SER148     -0.2717
    153  CB        21.8350   30.2270    8.0870 C.3   148  SER148      0.2103
    154  OG        20.8730   30.4580    7.0680 O.3   148  SER148     -0.2182
    155  N         19.5570   27.5880    8.8590 N.am  149  ALA149     -0.1965
    156  CA        18.8990   26.5110    8.1380 C.3   149  ALA149      0.1728
    157  C         18.7480   26.8780    6.6670 C.2   149  ALA149      0.2616
    158  O         18.8420   26.0120    5.8000 O.2   149  ALA149     -0.2715
    159  CB        17.5480   26.1830    8.7530 C.3   149  ALA149      0.0334
    160  N         18.5270   28.1650    6.3920 N.am  150  LEU150     -0.1977
    161  CA        18.3410   28.6380    5.0230 C.3   150  LEU150      0.1596
    162  C         19.5780   28.4120    4.1450 C.2   150  LEU150      0.2287
    163  O         19.4780   27.8220    3.0710 O.2   150  LEU150     -0.2864
    164  CB        17.9190   30.1150    5.0110 C.3   150  LEU150      0.0297
    165  CG        17.6110   30.7310    3.6450 C.3   150  LEU150      0.0022
    166  CD1       16.5710   31.8390    3.7970 C.3   150  LEU150      0.0001
    167  CD2       18.8820   31.2460    2.9460 C.3   150  LEU150      0.0001
@<TRIPOS>BOND
     1    70    69    1
     2    69    68    1
     3    69    71    1
     4    48    47    2
     5    68    65    1
     6    62    61    2
     7    64    65    1
     8    64    58   am
     9    61    63   am
    10    61    60    1
    11    47    46    1
    12    47    56   am
    13   167   165    1
    14    45    46    1
    15   163   162    2
    16    65    66    1
    17    57    60    1
    18    57    56    1
    19    57    58    1
    20    52    54   ar
    21    52    50   ar
    22    49    46    1
    23    49    50    1
    24   165   166    1
    25   165   164    1
    26    66    67    2
    27    58    59    2
    28    54    55   ar
    29    50    51   ar
    30   162   161    1
    31    86    85    1
    32   164   161    1
    33   161   160    1
    34    85    84    1
    35    55    53   ar
    36    72    73    1
    37    51    53   ar
    38   158   157    2
    39   140   138   ar
    40   137   138    1
    41   137   134    1
    42   136   135    2
    43    73    76    1
    44    73    74    1
    45    43    42    2
    46    84    83    1
    47   160   157   am
    48   138   139   ar
    49   157   156    1
    50   148   146    1
    51    83    82    1
    52    76    77    1
    53   134   135    1
    54   134   133    1
    55   154   153    1
    56   135   141   am
    57    74    78   am
    58    74    75    2
    59    42    44   am
    60    42    41    1
    61    78    79    1
    62   152   151    2
    63   153   150    1
    64    82    79    1
    65   156   159    1
    66   156   155    1
    67   141   142    1
    68   146   145    1
    69   146   147    1
    70   142   145    1
    71   142   143    1
    72    41    38    1
    73   151   155   am
    74   151   150    1
    75    79    80    1
    76    40    39    2
    77    38    39    1
    78    38    37    1
    79   150   149    1
    80   143   144    2
    81    80    81    2
    82    80    87   am
    83    34    33    2
    84    37    33   am
    85   127   126    2
    86    33    32    1
    87   126   125    1
    88   125   128    1
    89   125   124    1
    90    87    88    1
    91   130   129    1
    92   130   131    1
    93   128   129    1
    94    35    32    1
    95    35    36    1
    96   132   131    1
    97    90    89    2
    98    32    31    1
    99   122   121    2
   100   124   118   am
   101   123   121   am
   102    21    20    2
   103    88    89    1
   104    88    91    1
   105    89    93   am
   106   121   120    1
   107    19    20    1
   108    19    18    1
   109    31    24   am
   110    20    22   am
   111    10     9    2
   112   118   119    2
   113   118   117    1
   114    25    24    2
   115    93    94    1
   116    94    95    1
   117    94    97    1
   118    91    92    1
   119    98    97    1
   120    24    23    1
   121    18    13   am
   122    14    13    2
   123   120   117    1
   124    95    96    2
   125     9     8    1
   126     9    11   am
   127     8     7    1
   128   117   116    1
   129    22    23    1
   130    13    12    1
   131    97    99    1
   132    23    26    1
   133    11    12    1
   134     7     3   am
   135    12    15    1
   136    26    27    1
   137     3     4    2
   138     3     2    1
   139    15    17    1
   140    15    16    1
   141    27    28    1
   142     5     2    1
   143     5     6    1
   144     2     1    1
   145   111   108    1
   146    30    29    1
   147   100   101    1
   148   108   107    1
   149   108   109    1
   150   107   102   am
   151    29    28    1
   152   103   102    2
   153   102   101    1
   154   101   104    1
   155   112   109   am
   156   112   113    1
   157   109   110    2
   158   104   105    1
   159   104   106    1
   160   113   114    1
   161   114   115    2
