@<TRIPOS>MOLECULE
tmp/2f9nC00.pdb
 199 196 0 0 0
SMALL
GASTEIGER

@<TRIPOS>ATOM
      1  N         11.8990  -16.2410   57.3770 N.3    28  PHE28      -0.1227
      2  CA        11.0750  -15.0690   57.6970 C.3    28  PHE28       0.1736
      3  C          9.8020  -15.3960   58.4880 C.2    28  PHE28       0.2595
      4  O          9.1870  -14.5030   59.0700 O.2    28  PHE28      -0.2718
      5  CB        10.6950  -14.2750   56.4420 C.3    28  PHE28       0.0547
      6  CG         9.7230  -14.9760   55.5320 C.ar   28  PHE28      -0.0202
      7  CD1       10.1820  -15.7730   54.4830 C.ar   28  PHE28      -0.0042
      8  CD2        8.3470  -14.8020   55.6940 C.ar   28  PHE28      -0.0042
      9  CE1        9.2870  -16.3900   53.5900 C.ar   28  PHE28      -0.0003
     10  CE2        7.4410  -15.4110   54.8180 C.ar   28  PHE28      -0.0003
     11  CZ         7.9150  -16.2100   53.7550 C.ar   28  PHE28      -0.0000
     12  N          9.4080  -16.6640   58.5070 N.am   29  CYS29      -0.1970
     13  CA         8.2100  -17.0630   59.2270 C.3    29  CYS29       0.1712
     14  C          8.2130  -18.5610   59.4510 C.2    29  CYS29       0.2296
     15  O          8.9510  -19.3000   58.8040 O.2    29  CYS29      -0.2864
     16  CB         6.9510  -16.7250   58.4230 C.3    29  CYS29       0.0983
     17  SG         6.1840  -15.1040   58.7240 S.3    29  CYS29      -0.0798
     18  N         -0.4120  -12.9400   57.0530 N.3    44  HIS44      -0.1241
     19  CA         0.4930  -11.8020   56.9410 C.3    44  HIS44       0.1621
     20  C          1.9320  -12.2010   56.5520 C.2    44  HIS44       0.2264
     21  O          2.7130  -11.3710   56.0950 O.2    44  HIS44      -0.2867
     22  CB         0.4580  -10.9520   58.2370 C.3    44  HIS44       0.0745
     23  CG         1.4140  -11.4060   59.2990 C.ar   44  HIS44       0.0817
     24  ND1        1.0070  -12.0750   60.4390 N.ar   44  HIS44      -0.2268
     25  CD2        2.7630  -11.2820   59.3960 C.ar   44  HIS44       0.1154
     26  CE1        2.0640  -12.3410   61.1870 C.ar   44  HIS44       0.1986
     27  NE2        3.1400  -11.8710   60.5750 N.ar   44  HIS44      -0.2212
     28  N         -8.8390  -11.6830   55.0400 N.3    83  PHE83      -0.1241
     29  CA        -7.6030  -11.0150   55.4350 C.3    83  PHE83       0.1605
     30  C         -7.2390   -9.8180   54.5580 C.2    83  PHE83       0.2264
     31  O         -7.3110   -9.8920   53.3300 O.2    83  PHE83      -0.2867
     32  CB        -6.4320  -11.9840   55.3790 C.3    83  PHE83       0.0534
     33  CG        -5.1140  -11.3540   55.7710 C.ar   83  PHE83      -0.0203
     34  CD1       -4.7590  -11.2270   57.1140 C.ar   83  PHE83      -0.0042
     35  CD2       -4.2470  -10.8610   54.7950 C.ar   83  PHE83      -0.0042
     36  CE1       -3.5630  -10.6200   57.4850 C.ar   83  PHE83      -0.0003
     37  CE2       -3.0490  -10.2520   55.1510 C.ar   83  PHE83      -0.0003
     38  CZ        -2.7090  -10.1340   56.5020 C.ar   83  PHE83      -0.0000
     39  N         -2.9830   -4.1880   57.2830 N.3    86  ILE86      -0.1231
     40  CA        -3.1550   -3.4290   58.5190 C.3    86  ILE86       0.1692
     41  C         -4.5180   -3.6830   59.2250 C.2    86  ILE86       0.2592
     42  O         -5.3180   -2.7790   59.4920 O.2    86  ILE86      -0.2718
     43  CB        -2.8800   -1.8860   58.2990 C.3    86  ILE86       0.0266
     44  CG1       -1.6820   -1.6800   57.3420 C.3    86  ILE86       0.0019
     45  CG2       -2.5050   -1.2320   59.6660 C.3    86  ILE86       0.0020
     46  CD1       -1.3320   -0.2210   57.0700 C.3    86  ILE86       0.0001
     47  N         -4.7550   -4.9640   59.4880 N.am   87  GLN87      -0.1966
     48  CA        -5.9080   -5.4690   60.2310 C.3    87  GLN87       0.1733
     49  C         -5.3650   -6.8680   60.6140 C.2    87  GLN87       0.2617
     50  O         -4.5370   -7.4370   59.8890 O.2    87  GLN87      -0.2715
     51  CB        -7.1980   -5.4910   59.3840 C.3    87  GLN87       0.0408
     52  CG        -7.2410   -6.5150   58.2700 C.3    87  GLN87       0.0908
     53  CD        -7.5060   -7.9330   58.7710 C.2    87  GLN87       0.2608
     54  OE1       -6.7950   -8.8800   58.4040 O.2    87  GLN87      -0.2717
     55  NE2       -8.5340   -8.0850   59.5990 N.am   87  GLN87      -0.0878
     56  N         -5.7680   -7.3950   61.7660 N.am   88  THR88      -0.1951
     57  CA        -5.2210   -8.6780   62.2100 C.3    88  THR88       0.1897
     58  C         -6.1620   -9.8780   62.2210 C.2    88  THR88       0.2313
     59  O         -5.7370  -10.9780   62.5800 O.2    88  THR88      -0.2863
     60  CB        -4.5990   -8.5410   63.6150 C.3    88  THR88       0.1794
     61  OG1       -5.5650   -7.9740   64.5110 O.3    88  THR88      -0.2208
     62  CG2       -3.3820   -7.6360   63.5620 C.3    88  THR88       0.0378
     63  N         -6.0120  -14.0650   60.1290 N.3    91  ASP91      -0.1239
     64  CA        -4.5780  -14.1620   59.8110 C.3    91  ASP91       0.1674
     65  C         -4.1660  -15.6210   59.6420 C.2    91  ASP91       0.2266
     66  O         -3.5440  -16.2330   60.5250 O.2    91  ASP91      -0.2867
     67  CB        -3.7490  -13.4710   60.9100 C.3    91  ASP91       0.1410
     68  CG        -2.3200  -13.2220   60.4740 C.2    91  ASP91       0.3668
     69  OD1       -2.0220  -13.4060   59.2570 O.co2  91  ASP91      -0.2456
     70  OD2       -1.4980  -12.8530   61.3370 O.co2  91  ASP91      -0.2456
     71  N          7.0300  -16.0860   75.6640 N.3   188  ASP188     -0.1225
     72  CA         6.1900  -15.6480   74.5480 C.3   188  ASP188      0.1805
     73  C          6.8640  -15.9790   73.2130 C.2   188  ASP188      0.2598
     74  O          8.0120  -16.4320   73.1730 O.2   188  ASP188     -0.2718
     75  CB         6.0410  -14.1040   74.6660 C.3   188  ASP188      0.1424
     76  CG         4.8080  -13.5250   73.9420 C.2   188  ASP188      0.3668
     77  OD1        4.0230  -14.2570   73.2860 O.co2 188  ASP188     -0.2456
     78  OD2        4.6340  -12.2900   74.0630 O.co2 188  ASP188     -0.2456
     79  N          6.1210  -15.7610   72.1280 N.am  189  SER189     -0.1938
     80  CA         6.6660  -15.8880   70.7820 C.3   189  SER189      0.2055
     81  C          7.0260  -14.4190   70.4220 C.2   189  SER189      0.2643
     82  O          6.7120  -13.4930   71.1960 O.2   189  SER189     -0.2714
     83  CB         5.6350  -16.4750   69.8200 C.3   189  SER189      0.2130
     84  OG         4.3680  -15.8720   69.9630 O.3   189  SER189     -0.2179
     85  N          7.6650  -14.1990   69.2700 N.am  190  CYS190     -0.1953
     86  CA         8.1110  -12.8540   68.8970 C.3   190  CYS190      0.1843
     87  C          8.2320  -12.7310   67.3620 C.2   190  CYS190      0.2625
     88  O          7.8250  -13.6330   66.6220 O.2   190  CYS190     -0.2714
     89  CB         9.4800  -12.6080   69.5740 C.3   190  CYS190      0.0997
     90  SG        10.0150  -10.8680   69.7500 S.3   190  CYS190     -0.0797
     91  N          8.7600  -11.6050   66.8840 N.am  191  GLN191     -0.1963
     92  CA         8.9380  -11.4400   65.4430 C.3   191  GLN191      0.1733
     93  C          9.7990  -12.6270   64.9900 C.2   191  GLN191      0.2616
     94  O         10.7010  -13.0700   65.7240 O.2   191  GLN191     -0.2715
     95  CB         9.6450  -10.1180   65.1350 C.3   191  GLN191      0.0408
     96  CG         8.7430   -8.8870   65.1660 C.3   191  GLN191      0.0908
     97  CD         8.1060   -8.6170   66.5260 C.2   191  GLN191      0.2608
     98  OE1        8.7950   -8.5510   67.5460 O.2   191  GLN191     -0.2717
     99  NE2        6.7860   -8.4380   66.5380 N.am  191  GLN191     -0.0878
    100  N          9.5240  -13.1360   63.7920 N.am  192  GLY192     -0.1955
    101  CA        10.2680  -14.2700   63.2850 C.3   192  GLY192      0.1869
    102  C          9.5780  -15.5800   63.6250 C.2   192  GLY192      0.2309
    103  O          9.9280  -16.6190   63.0620 O.2   192  GLY192     -0.2863
    104  N          6.0930  -15.7390   63.6470 N.3   194  SER194     -0.1217
    105  CA         4.8030  -15.6670   62.9690 C.3   194  SER194      0.1889
    106  C          4.5500  -16.8180   62.0260 C.2   194  SER194      0.2288
    107  O          5.4430  -17.2340   61.2790 O.2   194  SER194     -0.2866
    108  CB         4.6970  -14.3930   62.1470 C.3   194  SER194      0.2089
    109  OG         4.3020  -13.3050   62.9990 O.3   194  SER194     -0.2183
    110  N          0.9460  -18.3430   65.3260 N.3   212  VAL212     -0.1231
    111  CA         1.5360  -17.0920   65.8470 C.3   212  VAL212      0.1692
    112  C          1.1240  -15.9520   64.9220 C.2   212  VAL212      0.2593
    113  O          1.3680  -16.0060   63.7100 O.2   212  VAL212     -0.2718
    114  CB         3.0820  -17.1560   65.9110 C.3   212  VAL212      0.0266
    115  CG1        3.6380  -15.8270   66.4230 C.3   212  VAL212      0.0020
    116  CG2        3.5110  -18.2960   66.8190 C.3   212  VAL212      0.0020
    117  N          0.5320  -14.9070   65.4950 N.am  213  SER213     -0.1938
    118  CA         0.0280  -13.7900   64.6860 C.3   213  SER213      0.2055
    119  C          0.5840  -12.4060   65.0210 C.2   213  SER213      0.2643
    120  O          1.2330  -11.7700   64.1860 O.2   213  SER213     -0.2714
    121  CB        -1.5040  -13.7570   64.8020 C.3   213  SER213      0.2130
    122  OG        -2.0900  -12.7790   63.9540 O.3   213  SER213     -0.2179
    123  N          0.3380  -11.9320   66.2440 N.am  214  TRP214     -0.1959
    124  CA         0.7930  -10.5970   66.6150 C.3   214  TRP214      0.1771
    125  C          0.7680  -10.3770   68.1130 C.2   214  TRP214      0.2620
    126  O          0.3800  -11.2570   68.8710 O.2   214  TRP214     -0.2715
    127  CB        -0.1050   -9.5460   65.9660 C.3   214  TRP214      0.0590
    128  CG        -1.5580   -9.5450   66.4550 C.ar  214  TRP214      0.0006
    129  CD1       -2.5660  -10.3760   66.0520 C.ar  214  TRP214      0.0946
    130  CD2       -2.1370   -8.6680   67.4450 C.ar  214  TRP214      0.0152
    131  NE1       -3.7390  -10.0750   66.7260 N.ar  214  TRP214     -0.2442
    132  CE2       -3.4970   -9.0320   67.5850 C.ar  214  TRP214      0.0810
    133  CE3       -1.6340   -7.6160   68.2240 C.ar  214  TRP214      0.0012
    134  CZ2       -4.3590   -8.3760   68.4740 C.ar  214  TRP214      0.0191
    135  CZ3       -2.4970   -6.9680   69.1080 C.ar  214  TRP214      0.0001
    136  CH2       -3.8370   -7.3510   69.2250 C.ar  214  TRP214      0.0015
    137  N          1.1850   -9.1920   68.5280 N.am  215  GLY215     -0.1940
    138  CA         1.1360   -8.8570   69.9410 C.3   215  GLY215      0.2014
    139  C          1.7590   -7.4880   70.0810 C.2   215  GLY215      0.2639
    140  O          2.3290   -6.9940   69.1160 O.2   215  GLY215     -0.2714
    141  N          1.6190   -6.8410   71.2320 N.am  216  GLU216     -0.1963
    142  CA         2.3060   -5.5590   71.4170 C.3   216  GLU216      0.1733
    143  C          3.6380   -5.9470   72.0800 C.2   216  GLU216      0.2617
    144  O          3.6630   -6.4380   73.2330 O.2   216  GLU216     -0.2715
    145  CB         1.5320   -4.6150   72.3260 C.3   216  GLU216      0.0429
    146  CG         2.3170   -3.3360   72.5380 C.3   216  GLU216      0.1163
    147  CD         1.5130   -2.2610   73.2360 C.2   216  GLU216      0.3649
    148  OE1        0.2700   -2.3150   73.2010 O.co2 216  GLU216     -0.2457
    149  OE2        2.1400   -1.3490   73.8090 O.co2 216  GLU216     -0.2457
    150  N          4.7370   -5.7490   71.3500 N.am  217  GLY217     -0.1940
    151  CA         6.0420   -6.1530   71.8540 C.3   217  GLY217      0.2014
    152  C          6.0790   -7.6860   71.9790 C.2   217  GLY217      0.2639
    153  O          5.2400   -8.3920   71.4150 O.2   217  GLY217     -0.2714
    154  N          7.0570   -8.1910   72.7190 N.am  218  CYS218     -0.1953
    155  CA         7.2050   -9.6230   72.9770 C.3   218  CYS218      0.1843
    156  C          7.4460   -9.7610   74.4900 C.2   218  CYS218      0.2625
    157  O          8.3670   -9.1330   75.0340 O.2   218  CYS218     -0.2714
    158  CB         8.4090  -10.1900   72.2280 C.3   218  CYS218      0.0997
    159  SG         8.3350   -9.9120   70.4310 S.3   218  CYS218     -0.0797
    160  N          6.6120  -10.5640   75.1520 N.am  219  ALA219     -0.1977
    161  CA         6.7100  -10.7930   76.6010 C.3   219  ALA219      0.1597
    162  C          6.6080   -9.4500   77.3170 C.2   219  ALA219      0.2287
    163  O          7.2850   -9.2050   78.3200 O.2   219  ALA219     -0.2864
    164  CB         8.0340  -11.4930   76.9480 C.3   219  ALA219      0.0319
    165  N          0.3990   -7.6990   77.9140 N.3   223  ARG223     -0.1245
    166  CA         0.2310   -7.8080   76.4640 C.3   223  ARG223      0.1563
    167  C          0.5430   -9.2490   76.0210 C.2   223  ARG223      0.2260
    168  O          1.6100   -9.5250   75.4550 O.2   223  ARG223     -0.2867
    169  CB         1.1630   -6.7900   75.7590 C.3   223  ARG223      0.0307
    170  CG         0.8150   -5.3060   75.9960 C.3   223  ARG223      0.0489
    171  CD        -0.5810   -4.9730   75.4520 C.3   223  ARG223      0.2205
    172  NE        -0.9390   -3.5510   75.5050 N.pl3 223  ARG223     -0.0865
    173  CZ        -1.5130   -2.9410   76.5490 C.cat 223  ARG223      0.5346
    174  NH1       -1.7920   -3.6180   77.6620 N.pl3 223  ARG223      0.1354
    175  NH2       -1.8630   -1.6610   76.4630 N.pl3 223  ARG223      0.1354
    176  N          0.6320  -12.8210   73.9230 N.3   225  GLY225     -0.1210
    177  CA         0.7590  -13.0810   72.4940 C.3   225  GLY225      0.1956
    178  C         -0.6070  -13.4160   71.9260 C.2   225  GLY225      0.2612
    179  O         -1.4020  -14.0790   72.5960 O.2   225  GLY225     -0.2717
    180  N         -0.8830  -12.9700   70.6990 N.am  226  ILE226     -0.1965
    181  CA        -2.1730  -13.2290   70.0780 C.3   226  ILE226      0.1727
    182  C         -1.9790  -14.1930   68.9060 C.2   226  ILE226      0.2616
    183  O         -1.1090  -13.9980   68.0520 O.2   226  ILE226     -0.2715
    184  CB        -2.8540  -11.9240   69.5940 C.3   226  ILE226      0.0290
    185  CG1       -2.7930  -10.8480   70.6990 C.3   226  ILE226      0.0022
    186  CG2       -4.2970  -12.2400   69.1690 C.3   226  ILE226      0.0023
    187  CD1       -3.4560  -11.2350   72.0260 C.3   226  ILE226      0.0001
    188  N         -2.8060  -15.2360   68.8920 N.am  227  TYR227     -0.1974
    189  CA        -2.7590  -16.2980   67.8970 C.3   227  TYR227      0.1639
    190  C         -4.0560  -16.4290   67.1160 C.2   227  TYR227      0.2290
    191  O         -5.1280  -16.1870   67.6540 O.2   227  TYR227     -0.2864
    192  CB        -2.5170  -17.6360   68.6150 C.3   227  TYR227      0.0560
    193  CG        -1.2160  -17.7300   69.3580 C.ar  227  TYR227     -0.0198
    194  CD1       -1.0200  -17.0420   70.5570 C.ar  227  TYR227     -0.0009
    195  CD2       -0.1400  -18.4370   68.8060 C.ar  227  TYR227     -0.0009
    196  CE1        0.2450  -17.0350   71.1900 C.ar  227  TYR227      0.0417
    197  CE2        1.1040  -18.4470   69.4100 C.ar  227  TYR227      0.0417
    198  CZ         1.3050  -17.7420   70.6010 C.ar  227  TYR227      0.1957
    199  OH         2.5610  -17.7430   71.1830 O.3   227  TYR227     -0.2866
@<TRIPOS>BOND
     1    31    30    2
     2     9    11   ar
     3     9     7   ar
     4    11    10   ar
     5     7     6   ar
     6    30    29    1
     7    35    37   ar
     8    35    33   ar
     9    10     8   ar
    10    28    29    1
    11    37    38   ar
    12    32    29    1
    13    32    33    1
    14     6     8   ar
    15     6     5    1
    16    33    34   ar
    17    21    20    2
    18     5     2    1
    19    38    36   ar
    20    20    19    1
    21    19    18    1
    22    19    22    1
    23    46    44    1
    24    34    36   ar
    25    39    40    1
    26    44    43    1
    27     1     2    1
    28     2     3    1
    29    22    23    1
    30    52    53    1
    31    52    51    1
    32    43    40    1
    33    43    45    1
    34    54    53    2
    35    16    17    1
    36    16    13    1
    37     3    12   am
    38     3     4    2
    39    12    13    1
    40    40    41    1
    41    53    55   am
    42    15    14    2
    43    41    47   am
    44    41    42    2
    45    13    14    1
    46    69    68   ar
    47    23    25   ar
    48    23    24   ar
    49    51    48    1
    50    25    27   ar
    51    47    48    1
    52    65    64    1
    53    65    66    2
    54    64    63    1
    55    64    67    1
    56    50    49    2
    57    48    49    1
    58    24    26   ar
    59    68    67    1
    60    68    70   ar
    61    27    26   ar
    62    49    56   am
    63   107   106    2
    64    56    57    1
    65   106   105    1
    66   108   105    1
    67   108   109    1
    68    57    58    1
    69    57    60    1
    70    58    59    2
    71   105   104    1
    72   103   102    2
    73   101   102    1
    74   101   100    1
    75    62    60    1
    76    60    61    1
    77   113   112    2
    78   100    93   am
    79   122   121    1
    80   120   119    2
    81   118   121    1
    82   118   119    1
    83   118   117    1
    84   112   117   am
    85   112   111    1
    86    93    92    1
    87    93    94    2
    88   119   123   am
    89    95    96    1
    90    95    92    1
    91    96    97    1
    92   110   111    1
    93    92    91    1
    94   111   114    1
    95   114   115    1
    96   114   116    1
    97   127   128    1
    98   127   124    1
    99   129   128   ar
   100   129   131   ar
   101   123   124    1
   102   128   130   ar
   103    97    99   am
   104    97    98    2
   105   124   125    1
   106    88    87    2
   107   131   132   ar
   108    91    87   am
   109   190   191    2
   110   190   189    1
   111    87    86    1
   112   130   132   ar
   113   130   133   ar
   114   132   134   ar
   115   189   192    1
   116   189   188    1
   117   183   182    2
   118   125   137   am
   119   125   126    2
   120   133   135   ar
   121   134   136   ar
   122   137   138    1
   123   192   193    1
   124   195   193   ar
   125   195   197   ar
   126   188   182   am
   127    86    85    1
   128    86    89    1
   129   182   181    1
   130   135   136   ar
   131   140   139    2
   132   186   184    1
   133    85    81   am
   134   193   194   ar
   135   197   198   ar
   136    89    90    1
   137   184   181    1
   138   184   185    1
   139    90   159    1
   140    83    84    1
   141    83    80    1
   142   138   139    1
   143   181   180    1
   144   139   141   am
   145    81    80    1
   146    81    82    2
   147   159   158    1
   148   194   196   ar
   149   198   199    1
   150   198   196   ar
   151   185   187    1
   152   180   178   am
   153    80    79    1
   154   141   142    1
   155   150   151    1
   156   150   143   am
   157   153   152    2
   158   142   143    1
   159   142   145    1
   160   151   152    1
   161   178   177    1
   162   178   179    2
   163   152   154   am
   164   143   144    2
   165    79    73   am
   166   158   155    1
   167   145   146    1
   168   177   176    1
   169   146   147    1
   170   154   155    1
   171   155   156    1
   172    74    73    2
   173   148   147   ar
   174    73    72    1
   175   147   149   ar
   176    77    76   ar
   177    76    78   ar
   178    76    75    1
   179   156   157    2
   180   156   160   am
   181    72    75    1
   182    72    71    1
   183   160   161    1
   184   171   172    1
   185   171   170    1
   186   168   167    2
   187   172   173    2
   188   169   170    1
   189   169   166    1
   190   167   166    1
   191   175   173    1
   192   166   165    1
   193   173   174    1
   194   161   164    1
   195   161   162    1
   196   162   163    2
