@<TRIPOS>MOLECULE
tmp/2f9uA00.pdb
 189 182 0 0 0
SMALL
GASTEIGER

@<TRIPOS>ATOM
      1  N        211.6240   -6.4140   53.4130 N.3    40  THR40      -0.1203
      2  CA       210.9330   -6.9640   52.2480 C.3    40  THR40       0.1994
      3  C        209.7680   -6.1490   51.6930 C.2    40  THR40       0.2618
      4  O        209.5910   -6.0610   50.4770 O.2    40  THR40      -0.2717
      5  CB       210.4230   -8.3860   52.5530 C.3    40  THR40       0.1784
      6  OG1      209.3620   -8.3210   53.5190 O.3    40  THR40      -0.2211
      7  CG2      211.5580   -9.2400   53.1390 C.3    40  THR40       0.0376
      8  N        208.9570   -5.5810   52.5760 N.am   41  GLN41      -0.1965
      9  CA       207.7950   -4.8170   52.1470 C.3    41  GLN41       0.1733
     10  C        207.5870   -3.5590   52.9810 C.2    41  GLN41       0.2617
     11  O        208.0670   -3.4740   54.1190 O.2    41  GLN41      -0.2715
     12  CB       206.5460   -5.7040   52.2360 C.3    41  GLN41       0.0408
     13  CG       206.2620   -6.2050   53.6440 C.3    41  GLN41       0.0908
     14  CD       205.0130   -7.0490   53.7470 C.2    41  GLN41       0.2608
     15  OE1      204.0420   -6.8490   53.0130 O.2    41  GLN41      -0.2717
     16  NE2      205.0210   -7.9900   54.6830 N.am   41  GLN41      -0.0878
     17  N        206.8500   -2.6020   52.4240 N.am   42  THR42      -0.1937
     18  CA       206.5570   -1.3540   53.1140 C.3    42  THR42       0.2028
     19  C        205.0430   -1.1430   53.1690 C.2    42  THR42       0.2642
     20  O        204.3220   -1.4360   52.2150 O.2    42  THR42      -0.2714
     21  CB       207.2760   -0.1650   52.4540 C.3    42  THR42       0.1808
     22  OG1      207.0920    1.0110   53.2440 O.3    42  THR42      -0.2208
     23  CG2      206.7490    0.0670   51.0740 C.3    42  THR42       0.0379
     24  N        204.5730   -0.6800   54.3200 N.am   43  PHE43      -0.1973
     25  CA       203.1570   -0.4770   54.5630 C.3    43  PHE43       0.1639
     26  C        202.9930    0.6360   55.6040 C.2    43  PHE43       0.2290
     27  O        203.9080    1.4400   55.7930 O.2    43  PHE43      -0.2864
     28  CB       202.5310   -1.7850   55.0610 C.3    43  PHE43       0.0560
     29  CG       203.3750   -2.5190   56.0750 C.ar   43  PHE43      -0.0200
     30  CD1      204.5600   -3.1370   55.7040 C.ar   43  PHE43      -0.0042
     31  CD2      203.0000   -2.5540   57.4160 C.ar   43  PHE43      -0.0042
     32  CE1      205.3610   -3.7860   56.6400 C.ar   43  PHE43      -0.0003
     33  CE2      203.7990   -3.2020   58.3610 C.ar   43  PHE43      -0.0003
     34  CZ       204.9820   -3.8120   57.9690 C.ar   43  PHE43      -0.0000
     35  N        199.1390   -4.1350   60.4200 N.3    55  VAL55      -0.1245
     36  CA       198.7130   -5.4110   59.8880 C.3    55  VAL55       0.1561
     37  C        199.7960   -6.4800   60.1550 C.2    55  VAL55       0.2260
     38  O        200.9660   -6.3090   59.8000 O.2    55  VAL55      -0.2867
     39  CB       198.3760   -5.2180   58.3690 C.3    55  VAL55       0.0252
     40  CG1      199.6150   -5.2630   57.5080 C.3    55  VAL55       0.0019
     41  CG2      197.3080   -6.1820   57.9020 C.3    55  VAL55       0.0019
     42  N        200.2490   -9.1580   58.7650 N.3    57  HIS57      -0.1226
     43  CA       200.7220   -9.6760   57.4840 C.3    57  HIS57       0.1752
     44  C        202.0160   -8.9830   57.0340 C.2    57  HIS57       0.2596
     45  O        202.7980   -9.5350   56.2420 O.2    57  HIS57      -0.2718
     46  CB       199.6290   -9.5060   56.4200 C.3    57  HIS57       0.0759
     47  CG       200.1590   -9.3550   55.0340 C.ar   57  HIS57       0.0818
     48  ND1      200.2670   -8.1300   54.4120 N.ar   57  HIS57      -0.2268
     49  CD2      200.6800  -10.2630   54.1680 C.ar   57  HIS57       0.1154
     50  CE1      200.8420   -8.2840   53.2310 C.ar   57  HIS57       0.1986
     51  NE2      201.1000   -9.5700   53.0610 N.ar   57  HIS57      -0.2212
     52  N        202.2220   -7.7600   57.5130 N.am   58  GLY58      -0.1957
     53  CA       203.4080   -7.0300   57.1330 C.3    58  GLY58       0.1869
     54  C        204.4620   -6.9920   58.2080 C.2    58  GLY58       0.2309
     55  O        205.6400   -7.1820   57.9160 O.2    58  GLY58      -0.2863
     56  N        194.8220  -10.6290   62.4810 N.3    81  ASP81      -0.1239
     57  CA       195.8540  -10.0290   61.6350 C.3    81  ASP81       0.1674
     58  C        196.3510   -8.7020   62.2080 C.2    81  ASP81       0.2266
     59  O        196.6840   -7.7900   61.4590 O.2    81  ASP81      -0.2867
     60  CB       195.3200   -9.8590   60.1920 C.3    81  ASP81       0.1410
     61  CG       196.4340   -9.7590   59.1390 C.2    81  ASP81       0.3668
     62  OD1      197.5400  -10.2780   59.3890 O.co2  81  ASP81      -0.2456
     63  OD2      196.1950   -9.1900   58.0450 O.co2  81  ASP81      -0.2456
     64  N        198.9630    5.7370   51.6380 N.3   109  ARG109     -0.1231
     65  CA       200.3580    6.1270   51.8900 C.3   109  ARG109      0.1694
     66  C        200.8520    7.3290   51.1230 C.2   109  ARG109      0.2592
     67  O        201.9750    7.7890   51.3440 O.2   109  ARG109     -0.2718
     68  CB       201.3220    4.9670   51.6330 C.3   109  ARG109      0.0321
     69  CG       201.4160    4.5110   50.1830 C.3   109  ARG109      0.0489
     70  CD       202.7960    3.9290   49.8760 C.3   109  ARG109      0.2205
     71  NE       203.2850    3.1060   50.9750 N.pl3 109  ARG109     -0.0865
     72  CZ       204.4870    3.2200   51.5230 C.cat 109  ARG109      0.5346
     73  NH1      205.3470    4.1270   51.0680 N.pl3 109  ARG109      0.1354
     74  NH2      204.8050    2.4550   52.5600 N.pl3 109  ARG109      0.1354
     75  N        200.0580    7.7820   50.1610 N.am  110  HIS110     -0.1976
     76  CA       200.4150    8.9610   49.3820 C.3   110  HIS110      0.1656
     77  C        199.6490   10.1330   49.9640 C.2   110  HIS110      0.2291
     78  O        199.5770   11.2080   49.3710 O.2   110  HIS110     -0.2864
     79  CB       200.0490    8.7510   47.9280 C.3   110  HIS110      0.0771
     80  CG       200.5010    7.4310   47.4030 C.ar  110  HIS110      0.0820
     81  ND1      201.8330    7.1160   47.2360 N.ar  110  HIS110     -0.2267
     82  CD2      199.8040    6.3190   47.0790 C.ar  110  HIS110      0.1154
     83  CE1      201.9330    5.8620   46.8340 C.ar  110  HIS110      0.1986
     84  NE2      200.7200    5.3540   46.7300 N.ar  110  HIS110     -0.2212
     85  N        183.9640   -4.3970   55.6190 N.3   123  ARG123     -0.1245
     86  CA       184.0020   -4.2220   54.1670 C.3   123  ARG123      0.1563
     87  C        183.3180   -2.9040   53.8180 C.2   123  ARG123      0.2260
     88  O        182.4570   -2.4270   54.5580 O.2   123  ARG123     -0.2867
     89  CB       183.2810   -5.3890   53.4920 C.3   123  ARG123      0.0307
     90  CG       183.2010   -5.3510   51.9740 C.3   123  ARG123      0.0489
     91  CD       184.4080   -6.0110   51.3410 C.3   123  ARG123      0.2205
     92  NE       184.0540   -6.7830   50.1460 N.pl3 123  ARG123     -0.0865
     93  CZ       184.3100   -8.0840   49.9910 C.cat 123  ARG123      0.5346
     94  NH1      184.9260   -8.7680   50.9520 N.pl3 123  ARG123      0.1354
     95  NH2      183.9390   -8.7060   48.8780 N.pl3 123  ARG123      0.1354
     96  N        194.8430   -1.7970   41.8870 N.3   132  ILE132     -0.1231
     97  CA       195.3540   -2.4110   43.1100 C.3   132  ILE132      0.1692
     98  C        196.6990   -1.7950   43.4850 C.2   132  ILE132      0.2592
     99  O        197.0200   -1.6640   44.6670 O.2   132  ILE132     -0.2718
    100  CB       195.4970   -3.9450   42.9770 C.3   132  ILE132      0.0266
    101  CG1      196.5640   -4.3000   41.9430 C.3   132  ILE132      0.0019
    102  CG2      194.1690   -4.5560   42.5970 C.3   132  ILE132      0.0020
    103  CD1      196.7580   -5.7770   41.7490 C.3   132  ILE132      0.0001
    104  N        197.4520   -1.3710   42.4730 N.am  133  SER133     -0.1952
    105  CA       198.7690   -0.7640   42.6660 C.3   133  SER133      0.1924
    106  C        198.6760    0.5030   43.5010 C.2   133  SER133      0.2314
    107  O        199.6210    0.8710   44.2080 O.2   133  SER133     -0.2863
    108  CB       199.4050   -0.4200   41.3150 C.3   133  SER133      0.2116
    109  OG       198.6150    0.5180   40.5970 O.3   133  SER133     -0.2180
    110  N        196.5650    0.9700   46.0020 N.3   135  LEU135     -0.1231
    111  CA       196.3990    0.5880   47.3990 C.3   135  LEU135      0.1693
    112  C        197.6440   -0.0890   47.9920 C.2   135  LEU135      0.2592
    113  O        197.8400   -0.0990   49.2100 O.2   135  LEU135     -0.2718
    114  CB       195.1800   -0.3260   47.5730 C.3   135  LEU135      0.0284
    115  CG       193.7570    0.2000   47.3310 C.3   135  LEU135      0.0019
    116  CD1      193.5100    1.4870   48.0940 C.3   135  LEU135      0.0001
    117  CD2      193.5430    0.4220   45.8620 C.3   135  LEU135      0.0001
    118  N        198.4740   -0.6760   47.1400 N.am  136  LYS136     -0.1966
    119  CA       199.6860   -1.3380   47.6050 C.3   136  LYS136      0.1728
    120  C        200.5070   -0.4110   48.4950 C.2   136  LYS136      0.2616
    121  O        200.7440    0.7500   48.1700 O.2   136  LYS136     -0.2715
    122  CB       200.5400   -1.8040   46.4200 C.3   136  LYS136      0.0311
    123  CG       200.2660   -3.2350   45.9240 C.3   136  LYS136      0.0038
    124  CD       201.0070   -3.5190   44.5980 C.3   136  LYS136      0.0206
    125  CE       200.9140   -4.9830   44.1440 C.3   136  LYS136      0.1093
    126  NZ       201.7930   -5.8820   44.9510 N.3   136  LYS136     -0.1314
    127  N        200.9110   -0.9200   49.6450 N.am  137  GLY137     -0.1955
    128  CA       201.7030   -0.1230   50.5570 C.3   137  GLY137      0.1869
    129  C        200.8430    0.5700   51.5900 C.2   137  GLY137      0.2309
    130  O        201.3570    1.0470   52.5950 O.2   137  GLY137     -0.2863
    131  N        198.4600   -0.9030   53.5070 N.3   139  SER139     -0.1217
    132  CA       197.9560   -1.7980   54.5480 C.3   139  SER139      0.1889
    133  C        198.2970   -1.2540   55.9210 C.2   139  SER139      0.2288
    134  O        199.4210   -0.8170   56.1470 O.2   139  SER139     -0.2866
    135  CB       198.5750   -3.1820   54.4180 C.3   139  SER139      0.2089
    136  OG       198.0150   -3.6200   53.2260 O.3   139  SER139     -0.2183
    137  N        193.0280   -0.6070   57.1020 N.3   154  PHE154     -0.1227
    138  CA       192.9650   -1.2700   55.8020 C.3   154  PHE154      0.1736
    139  C        193.7250   -2.6090   55.7980 C.2   154  PHE154      0.2595
    140  O        194.9140   -2.6550   56.1340 O.2   154  PHE154     -0.2718
    141  CB       193.5120   -0.3450   54.7280 C.3   154  PHE154      0.0547
    142  CG       193.5180   -0.9400   53.3710 C.ar  154  PHE154     -0.0202
    143  CD1      192.4280   -1.6610   52.9200 C.ar  154  PHE154     -0.0042
    144  CD2      194.6170   -0.7920   52.5390 C.ar  154  PHE154     -0.0042
    145  CE1      192.4420   -2.2090   51.6510 C.ar  154  PHE154     -0.0003
    146  CE2      194.6330   -1.3400   51.2640 C.ar  154  PHE154     -0.0003
    147  CZ       193.5610   -2.0510   50.8220 C.ar  154  PHE154     -0.0000
    148  N        193.0530   -3.6830   55.3760 N.am  155  ARG155     -0.1966
    149  CA       193.6780   -5.0000   55.3700 C.3   155  ARG155      0.1729
    150  C        193.9340   -5.6270   54.0220 C.2   155  ARG155      0.2616
    151  O        195.0290   -6.1320   53.7780 O.2   155  ARG155     -0.2715
    152  CB       192.8730   -5.9900   56.2030 C.3   155  ARG155      0.0348
    153  CG       193.7330   -7.1260   56.7590 C.3   155  ARG155      0.0492
    154  CD       192.9040   -8.2210   57.3940 C.3   155  ARG155      0.2205
    155  NE       192.4160   -9.1560   56.3900 N.pl3 155  ARG155     -0.0865
    156  CZ       193.1400  -10.1550   55.8980 C.cat 155  ARG155      0.5346
    157  NH1      194.3820  -10.3520   56.3260 N.pl3 155  ARG155      0.1354
    158  NH2      192.6350  -10.9410   54.9570 N.pl3 155  ARG155      0.1354
    159  N        192.9220   -5.6660   53.1670 N.am  156  ALA156     -0.1963
    160  CA       193.0940   -6.2800   51.8590 C.3   156  ALA156      0.1728
    161  C        192.1660   -5.6460   50.8650 C.2   156  ALA156      0.2616
    162  O        191.1440   -5.0680   51.2340 O.2   156  ALA156     -0.2715
    163  CB       192.8210   -7.7680   51.9260 C.3   156  ALA156      0.0334
    164  N        192.5090   -5.7800   49.5960 N.am  157  ALA157     -0.1963
    165  CA       191.6960   -5.2040   48.5580 C.3   157  ALA157      0.1728
    166  C        190.7880   -6.2470   47.9370 C.2   157  ALA157      0.2616
    167  O        191.1770   -7.4030   47.7580 O.2   157  ALA157     -0.2715
    168  CB       192.5750   -4.5650   47.5030 C.3   157  ALA157      0.0334
    169  N        189.5560   -5.8370   47.6620 N.am  158  VAL158     -0.1963
    170  CA       188.5620   -6.6860   47.0200 C.3   158  VAL158      0.1727
    171  C        188.6310   -6.2140   45.5690 C.2   158  VAL158      0.2616
    172  O        188.0350   -5.1960   45.2020 O.2   158  VAL158     -0.2715
    173  CB       187.1730   -6.4070   47.5920 C.3   158  VAL158      0.0290
    174  CG1      186.1570   -7.3060   46.9530 C.3   158  VAL158      0.0023
    175  CG2      187.1860   -6.5860   49.0840 C.3   158  VAL158      0.0023
    176  N        189.3790   -6.9370   44.7510 N.am  159  CYS159     -0.1968
    177  CA       189.5740   -6.5350   43.3670 C.3   159  CYS159      0.1712
    178  C        189.3900   -7.6160   42.3180 C.2   159  CYS159      0.2296
    179  O        189.3380   -8.8020   42.6320 O.2   159  CYS159     -0.2864
    180  CB       190.9840   -5.9630   43.2240 C.3   159  CYS159      0.0983
    181  SG       192.2950   -7.0520   43.8570 S.3   159  CYS159     -0.0798
    182  N        188.7260   -4.6830   52.4540 N.3   168  ASP168     -0.1239
    183  CA       188.4370   -5.3830   53.6950 C.3   168  ASP168      0.1674
    184  C        189.3140   -4.7160   54.7130 C.2   168  ASP168      0.2266
    185  O        190.4820   -4.4170   54.4360 O.2   168  ASP168     -0.2867
    186  CB       188.7990   -6.8710   53.6250 C.3   168  ASP168      0.1410
    187  CG       187.8360   -7.6780   52.7640 C.2   168  ASP168      0.3668
    188  OD1      186.6070   -7.6220   53.0120 O.co2 168  ASP168     -0.2456
    189  OD2      188.3110   -8.3920   51.8520 O.co2 168  ASP168     -0.2456
@<TRIPOS>BOND
     1   109   108    1
     2   108   105    1
     3   103   101    1
     4    96    97    1
     5   101   100    1
     6   178   179    2
     7   178   177    1
     8   104   105    1
     9   104    98   am
    10   102   100    1
    11   105   106    1
    12   100    97    1
    13    97    98    1
    14   180   177    1
    15   180   181    1
    16   177   176    1
    17    98    99    2
    18   106   107    2
    19   125   124    1
    20   125   126    1
    21   124   123    1
    22   176   171   am
    23   172   171    2
    24   171   170    1
    25   117   115    1
    26   123   122    1
    27   110   111    1
    28   122   119    1
    29    84    83   ar
    30    84    82   ar
    31    83    81   ar
    32   174   173    1
    33   170   173    1
    34   170   169    1
    35    82    80   ar
    36   118   119    1
    37   118   112   am
    38    81    80   ar
    39   115   114    1
    40   115   116    1
    41   111   114    1
    42   111   112    1
    43    80    79    1
    44   168   165    1
    45   173   175    1
    46   119   120    1
    47   169   166   am
    48   167   166    2
    49    79    76    1
    50   166   165    1
    51   112   113    2
    52   121   120    2
    53   120   127   am
    54   165   164    1
    55    95    93    1
    56    78    77    2
    57    76    77    1
    58    76    75    1
    59   164   161   am
    60   127   128    1
    61    70    69    1
    62    70    71    1
    63    93    92    2
    64    93    94    1
    65    92    91    1
    66    75    66   am
    67    69    68    1
    68     4     3    2
    69   128   129    1
    70   147   146   ar
    71   147   145   ar
    72   161   162    2
    73   161   160    1
    74    71    72    2
    75    73    72    1
    76    23    21    1
    77    66    67    2
    78    66    65    1
    79   146   144   ar
    80    91    90    1
    81    72    74    1
    82   129   130    2
    83    68    65    1
    84    64    65    1
    85   145   143   ar
    86     3     2    1
    87     3     8   am
    88   189   187   ar
    89   160   163    1
    90   160   159    1
    91    90    89    1
    92     9    12    1
    93     9     8    1
    94     9    10    1
    95    20    19    2
    96    12    13    1
    97     2     5    1
    98     2     1    1
    99    17    10   am
   100    17    18    1
   101    21    18    1
   102    21    22    1
   103   182   183    1
   104   144   142   ar
   105     5     7    1
   106     5     6    1
   107   187   188   ar
   108   187   186    1
   109   143   142   ar
   110    10    11    2
   111    15    14    2
   112    51    50   ar
   113    51    49   ar
   114    18    19    1
   115   159   150   am
   116    19    24   am
   117   136   135    1
   118    50    48   ar
   119   142   141    1
   120    89    86    1
   121   131   132    1
   122   186   183    1
   123    13    14    1
   124   183   184    1
   125    14    16   am
   126   151   150    2
   127    87    86    1
   128    87    88    2
   129   150   149    1
   130    86    85    1
   131    49    47   ar
   132    24    25    1
   133    48    47   ar
   134   135   132    1
   135   185   184    2
   136   132   133    1
   137    25    28    1
   138    25    26    1
   139   141   138    1
   140   158   156    1
   141    47    46    1
   142    28    29    1
   143   149   148    1
   144   149   152    1
   145   148   139   am
   146    26    27    2
   147    30    29   ar
   148    30    32   ar
   149   139   138    1
   150   139   140    2
   151   138   137    1
   152   156   157    1
   153   156   155    2
   154   133   134    2
   155    29    31   ar
   156   152   153    1
   157    45    44    2
   158   155   154    1
   159    46    43    1
   160    32    34   ar
   161   153   154    1
   162    44    43    1
   163    44    52   am
   164    53    52    1
   165    53    54    1
   166    31    33   ar
   167    43    42    1
   168    40    39    1
   169    41    39    1
   170    55    54    2
   171    34    33   ar
   172    63    61   ar
   173    39    36    1
   174    61    62   ar
   175    61    60    1
   176    38    37    2
   177    36    37    1
   178    36    35    1
   179    60    57    1
   180    59    58    2
   181    57    58    1
   182    57    56    1
