@<TRIPOS>MOLECULE
tmp/2f9vA00.pdb
 195 189 0 0 0
SMALL
GASTEIGER

@<TRIPOS>ATOM
      1  N        209.6360   -6.7180   53.5430 N.3    42  THR42      -0.1203
      2  CA       208.6920   -7.3860   52.6680 C.3    42  THR42       0.1994
      3  C        207.7440   -6.4100   51.9630 C.2    42  THR42       0.2618
      4  O        207.8590   -6.1820   50.7640 O.2    42  THR42      -0.2717
      5  CB       207.8260   -8.4030   53.4780 C.3    42  THR42       0.1784
      6  OG1      208.6680   -9.2170   54.3080 O.3    42  THR42      -0.2211
      7  CG2      207.0160   -9.2870   52.5390 C.3    42  THR42       0.0376
      8  N        206.8580   -5.7850   52.7330 N.am   43  GLN43      -0.1965
      9  CA       205.8440   -4.9030   52.1710 C.3    43  GLN43       0.1733
     10  C        205.6040   -3.6420   52.9850 C.2    43  GLN43       0.2617
     11  O        206.0860   -3.5160   54.1060 O.2    43  GLN43      -0.2715
     12  CB       204.5280   -5.6830   52.1080 C.3    43  GLN43       0.0408
     13  CG       204.1370   -6.2640   53.4670 C.3    43  GLN43       0.0908
     14  CD       202.8850   -7.1110   53.4240 C.2    43  GLN43       0.2608
     15  OE1      201.9140   -6.7930   52.7340 O.2    43  GLN43      -0.2717
     16  NE2      202.8900   -8.1920   54.1820 N.am   43  GLN43      -0.0878
     17  N        204.8170   -2.7310   52.4230 N.am   44  THR44      -0.1937
     18  CA       204.4710   -1.4920   53.1060 C.3    44  THR44       0.2028
     19  C        202.9640   -1.3760   53.1500 C.2    44  THR44       0.2642
     20  O        202.2590   -1.7530   52.2080 O.2    44  THR44      -0.2714
     21  CB       205.0910   -0.2440   52.4480 C.3    44  THR44       0.1808
     22  OG1      204.5560    0.9420   53.0530 O.3    44  THR44      -0.2208
     23  CG2      204.8130   -0.2240   50.9700 C.3    44  THR44       0.0379
     24  N        202.4810   -0.8400   54.2570 N.am   45  PHE45      -0.1973
     25  CA       201.0610   -0.7000   54.4990 C.3    45  PHE45       0.1639
     26  C        200.8560    0.4050   55.5240 C.2    45  PHE45       0.2290
     27  O        201.7390    1.2450   55.7050 O.2    45  PHE45      -0.2864
     28  CB       200.4800   -2.0460   54.9830 C.3    45  PHE45       0.0560
     29  CG       201.3310   -2.7500   56.0120 C.ar   45  PHE45      -0.0200
     30  CD1      202.5800   -3.2800   55.6650 C.ar   45  PHE45      -0.0042
     31  CD2      200.9090   -2.8410   57.3300 C.ar   45  PHE45      -0.0042
     32  CE1      203.4000   -3.8830   56.6090 C.ar   45  PHE45      -0.0003
     33  CE2      201.7200   -3.4430   58.2910 C.ar   45  PHE45      -0.0003
     34  CZ       202.9710   -3.9650   57.9290 C.ar   45  PHE45      -0.0000
     35  N        197.2610   -4.3130   60.3570 N.3    57  VAL57      -0.1245
     36  CA       196.8120   -5.6010   59.8780 C.3    57  VAL57       0.1561
     37  C        197.8870   -6.6950   60.1110 C.2    57  VAL57       0.2260
     38  O        199.0820   -6.4670   59.9000 O.2    57  VAL57      -0.2867
     39  CB       196.3740   -5.4190   58.4010 C.3    57  VAL57       0.0252
     40  CG1      197.5210   -5.6120   57.4490 C.3    57  VAL57       0.0019
     41  CG2      195.1850   -6.2510   58.0960 C.3    57  VAL57       0.0019
     42  N        198.3970   -9.4990   58.5430 N.3    59  HIS59      -0.1226
     43  CA       199.0000  -10.0190   57.3210 C.3    59  HIS59       0.1752
     44  C        200.1310   -9.1570   56.7760 C.2    59  HIS59       0.2596
     45  O        200.7130   -9.4590   55.7380 O.2    59  HIS59      -0.2718
     46  CB       197.9490  -10.2900   56.2420 C.3    59  HIS59       0.0759
     47  CG       197.2660   -9.0730   55.7090 C.ar   59  HIS59       0.0818
     48  ND1      196.0000   -8.7020   56.1060 N.ar   59  HIS59      -0.2268
     49  CD2      197.6110   -8.2080   54.7180 C.ar   59  HIS59       0.1154
     50  CE1      195.5870   -7.6770   55.3760 C.ar   59  HIS59       0.1986
     51  NE2      196.5510   -7.3630   54.5300 N.ar   59  HIS59      -0.2212
     52  N        200.4210   -8.0760   57.4870 N.am   60  GLY60      -0.1957
     53  CA       201.4820   -7.1850   57.0870 C.3    60  GLY60       0.1869
     54  C        202.5530   -7.1610   58.1590 C.2    60  GLY60       0.2309
     55  O        203.7250   -7.4030   57.8660 O.2    60  GLY60      -0.2863
     56  N        192.9780  -10.6690   62.4820 N.3    83  ASP83      -0.1239
     57  CA       193.9580  -10.1010   61.5700 C.3    83  ASP83       0.1674
     58  C        194.4150   -8.7700   62.1440 C.2    83  ASP83       0.2266
     59  O        194.6990   -7.8310   61.4030 O.2    83  ASP83      -0.2867
     60  CB       193.3360   -9.9110   60.1830 C.3    83  ASP83       0.1410
     61  CG       194.3660   -9.8250   59.0730 C.2    83  ASP83       0.3668
     62  OD1      195.5150  -10.2750   59.2670 O.co2  83  ASP83      -0.2456
     63  OD2      194.0080   -9.3260   57.9880 O.co2  83  ASP83      -0.2456
     64  N        196.7830    5.1930   51.4890 N.3   111  ARG111     -0.1231
     65  CA       198.1690    5.5430   51.8210 C.3   111  ARG111      0.1694
     66  C        198.6680    6.8060   51.1340 C.2   111  ARG111      0.2592
     67  O        199.7190    7.3240   51.4890 O.2   111  ARG111     -0.2718
     68  CB       199.1120    4.3860   51.4980 C.3   111  ARG111      0.0321
     69  CG       199.0390    3.9230   50.0530 C.3   111  ARG111      0.0489
     70  CD       200.1500    2.9410   49.7030 C.3   111  ARG111      0.2205
     71  NE       201.4700    3.5020   49.9550 N.pl3 111  ARG111     -0.0865
     72  CZ       202.2040    3.2290   51.0280 C.cat 111  ARG111      0.5346
     73  NH1      201.7500    2.3880   51.9520 N.pl3 111  ARG111      0.1354
     74  NH2      203.3680    3.8410   51.2070 N.pl3 111  ARG111      0.1354
     75  N        197.9500    7.2570   50.1090 N.am  112  HIS112     -0.1976
     76  CA       198.3150    8.4740   49.3860 C.3   112  HIS112      0.1656
     77  C        197.5750    9.6550   49.9790 C.2   112  HIS112      0.2291
     78  O        197.5540   10.7310   49.3910 O.2   112  HIS112     -0.2864
     79  CB       197.9290    8.3490   47.9210 C.3   112  HIS112      0.0771
     80  CG       198.4360    7.1010   47.2830 C.ar  112  HIS112      0.0820
     81  ND1      199.7770    6.8800   47.0530 N.ar  112  HIS112     -0.2267
     82  CD2      197.7870    5.9860   46.8680 C.ar  112  HIS112      0.1154
     83  CE1      199.9310    5.6740   46.5240 C.ar  112  HIS112      0.1986
     84  NE2      198.7380    5.1180   46.4000 N.ar  112  HIS112     -0.2212
     85  N        181.9680   -4.8140   55.6580 N.3   125  ARG125     -0.1245
     86  CA       182.0520   -4.5220   54.2350 C.3   125  ARG125      0.1563
     87  C        181.3480   -3.2250   53.8810 C.2   125  ARG125      0.2260
     88  O        180.4650   -2.7560   54.6010 O.2   125  ARG125     -0.2867
     89  CB       181.5070   -5.6800   53.3820 C.3   125  ARG125      0.0307
     90  CG       181.7260   -5.4750   51.8640 C.3   125  ARG125      0.0489
     91  CD       181.4460   -6.7100   50.9960 C.3   125  ARG125      0.2205
     92  NE       182.4370   -7.7840   51.1590 N.pl3 125  ARG125     -0.0865
     93  CZ       182.6650   -8.7430   50.2580 C.cat 125  ARG125      0.5346
     94  NH1      181.9890   -8.7730   49.1130 N.pl3 125  ARG125      0.1354
     95  NH2      183.5450   -9.7020   50.5200 N.pl3 125  ARG125      0.1354
     96  N        192.6030   -1.7430   41.7350 N.3   134  ILE134     -0.1231
     97  CA       193.1570   -2.2960   42.9590 C.3   134  ILE134      0.1692
     98  C        194.4840   -1.6670   43.3880 C.2   134  ILE134      0.2592
     99  O        194.7850   -1.6030   44.5800 O.2   134  ILE134     -0.2718
    100  CB       193.3010   -3.8320   42.8510 C.3   134  ILE134      0.0266
    101  CG1      193.5450   -4.4300   44.2310 C.3   134  ILE134      0.0019
    102  CG2      194.4460   -4.2060   41.9260 C.3   134  ILE134      0.0020
    103  CD1      192.4320   -4.1610   45.1900 C.3   134  ILE134      0.0001
    104  N        195.2470   -1.1520   42.4320 N.am  135  SER135     -0.1952
    105  CA       196.5430   -0.5330   42.7170 C.3   135  SER135      0.1924
    106  C        196.4470    0.7650   43.5370 C.2   135  SER135      0.2314
    107  O        197.3870    1.1290   44.2450 O.2   135  SER135     -0.2863
    108  CB       197.2890   -0.2600   41.4100 C.3   135  SER135      0.2116
    109  OG       196.4770    0.5140   40.5310 O.3   135  SER135     -0.2180
    110  N        194.5790    1.1870   45.9350 N.3   137  LEU137     -0.1231
    111  CA       194.4840    0.6640   47.2840 C.3   137  LEU137      0.1693
    112  C        195.6900   -0.1240   47.8140 C.2   137  LEU137      0.2592
    113  O        195.8440   -0.2570   49.0280 O.2   137  LEU137     -0.2718
    114  CB       193.1950   -0.1570   47.4190 C.3   137  LEU137      0.0284
    115  CG       191.9020    0.5740   47.8160 C.3   137  LEU137      0.0019
    116  CD1      191.9110    2.0210   47.3680 C.3   137  LEU137      0.0001
    117  CD2      190.7090   -0.1590   47.2340 C.3   137  LEU137      0.0001
    118  N        196.5320   -0.6750   46.9480 N.am  138  LYS138     -0.1966
    119  CA       197.6920   -1.4080   47.4550 C.3   138  LYS138      0.1728
    120  C        198.4840   -0.5360   48.4150 C.2   138  LYS138      0.2617
    121  O        198.6360    0.6680   48.2060 O.2   138  LYS138     -0.2715
    122  CB       198.5880   -1.9120   46.3310 C.3   138  LYS138      0.0311
    123  CG       198.0920   -3.1910   45.6890 C.3   138  LYS138      0.0038
    124  CD       199.1540   -3.8010   44.7820 C.3   138  LYS138      0.0206
    125  CE       198.6740   -5.0920   44.1150 C.3   138  LYS138      0.1093
    126  NZ       197.7070   -4.8580   42.9930 N.3   138  LYS138     -0.1314
    127  N        198.9430   -1.1460   49.4980 N.am  139  GLY139     -0.1940
    128  CA       199.6840   -0.4110   50.5030 C.3   139  GLY139      0.2014
    129  C        198.7940    0.2550   51.5280 C.2   139  GLY139      0.2640
    130  O        199.2980    0.7660   52.5150 O.2   139  GLY139     -0.2714
    131  N        197.4790    0.1990   51.3390 N.am  140  SER140     -0.1935
    132  CA       196.5600    0.8240   52.2830 C.3   140  SER140      0.2055
    133  C        195.9930   -0.0460   53.4230 C.2   140  SER140      0.2643
    134  O        195.2340    0.4450   54.2530 O.2   140  SER140     -0.2714
    135  CB       195.4340    1.5480   51.5340 C.3   140  SER140      0.2130
    136  OG       195.9540    2.6490   50.7860 O.3   140  SER140     -0.2179
    137  N        196.3960   -1.3140   53.5040 N.am  141  SER141     -0.1949
    138  CA       195.9200   -2.2130   54.5680 C.3   141  SER141      0.1924
    139  C        196.3250   -1.6900   55.9370 C.2   141  SER141      0.2314
    140  O        197.5000   -1.4380   56.1870 O.2   141  SER141     -0.2863
    141  CB       196.4820   -3.6180   54.3830 C.3   141  SER141      0.2116
    142  OG       195.9330   -4.1640   53.1980 O.3   141  SER141     -0.2180
    143  N        190.9770   -0.9000   57.0820 N.3   156  PHE156     -0.1227
    144  CA       190.9430   -1.5480   55.7670 C.3   156  PHE156      0.1736
    145  C        191.7390   -2.8560   55.8130 C.2   156  PHE156      0.2595
    146  O        192.8810   -2.8680   56.2650 O.2   156  PHE156     -0.2718
    147  CB       191.5270   -0.5910   54.7230 C.3   156  PHE156      0.0547
    148  CG       191.6230   -1.1660   53.3310 C.ar  156  PHE156     -0.0202
    149  CD1      190.5550   -1.8330   52.7590 C.ar  156  PHE156     -0.0042
    150  CD2      192.7820   -1.0060   52.5810 C.ar  156  PHE156     -0.0042
    151  CE1      190.6470   -2.3260   51.4580 C.ar  156  PHE156     -0.0003
    152  CE2      192.8800   -1.4970   51.2810 C.ar  156  PHE156     -0.0003
    153  CZ       191.8220   -2.1520   50.7200 C.ar  156  PHE156     -0.0000
    154  N        191.1700   -3.9400   55.2940 N.am  157  ARG157     -0.1966
    155  CA       191.8620   -5.2210   55.3390 C.3   157  ARG157      0.1729
    156  C        192.1690   -5.8230   53.9710 C.2   157  ARG157      0.2616
    157  O        193.3110   -6.2140   53.6870 O.2   157  ARG157     -0.2715
    158  CB       191.0530   -6.2230   56.1560 C.3   157  ARG157      0.0348
    159  CG       191.8680   -7.4130   56.6140 C.3   157  ARG157      0.0492
    160  CD       191.0030   -8.4630   57.2580 C.3   157  ARG157      0.2205
    161  NE       190.3370   -9.2810   56.2550 N.pl3 157  ARG157     -0.0865
    162  CZ       190.7270  -10.5050   55.9170 C.cat 157  ARG157      0.5346
    163  NH1      191.7780  -11.0650   56.5120 N.pl3 157  ARG157      0.1354
    164  NH2      190.0830  -11.1580   54.9530 N.pl3 157  ARG157      0.1354
    165  N        191.1370   -5.9340   53.1470 N.am  158  ALA158     -0.1963
    166  CA       191.2670   -6.5030   51.8160 C.3   158  ALA158      0.1728
    167  C        190.2280   -5.8440   50.9350 C.2   158  ALA158      0.2616
    168  O        189.2270   -5.3380   51.4360 O.2   158  ALA158     -0.2715
    169  CB       191.0410   -7.9950   51.8560 C.3   158  ALA158      0.0334
    170  N        190.4710   -5.8110   49.6330 N.am  159  ALA159     -0.1963
    171  CA       189.5200   -5.1910   48.7310 C.3   159  ALA159      0.1728
    172  C        188.8620   -6.2450   47.8740 C.2   159  ALA159      0.2616
    173  O        189.5330   -7.1580   47.3850 O.2   159  ALA159     -0.2715
    174  CB       190.2100   -4.1580   47.8580 C.3   159  ALA159      0.0334
    175  N        187.5400   -6.1580   47.7500 N.am  160  VAL160     -0.1963
    176  CA       186.7770   -7.0960   46.9290 C.3   160  VAL160      0.1727
    177  C        186.7830   -6.5200   45.5160 C.2   160  VAL160      0.2616
    178  O        185.9290   -5.7090   45.1370 O.2   160  VAL160     -0.2715
    179  CB       185.3190   -7.2450   47.3950 C.3   160  VAL160      0.0290
    180  CG1      184.8490   -8.6570   47.1590 C.3   160  VAL160      0.0023
    181  CG2      185.1650   -6.8730   48.8390 C.3   160  VAL160      0.0023
    182  N        187.8040   -6.8860   44.7630 N.am  161  CYS161     -0.1968
    183  CA       187.9450   -6.4020   43.4100 C.3   161  CYS161      0.1712
    184  C        187.7350   -7.5090   42.4020 C.2   161  CYS161      0.2296
    185  O        187.9850   -8.6910   42.6780 O.2   161  CYS161     -0.2864
    186  CB       189.3200   -5.7790   43.2240 C.3   161  CYS161      0.0983
    187  SG       190.6520   -6.8620   43.7060 S.3   161  CYS161     -0.0798
    188  N        186.7380   -4.9940   52.4540 N.3   170  ASP170     -0.1239
    189  CA       186.4290   -5.6620   53.7040 C.3   170  ASP170      0.1674
    190  C        187.3110   -5.0530   54.7670 C.2   170  ASP170      0.2266
    191  O        188.5150   -4.8330   54.5560 O.2   170  ASP170     -0.2867
    192  CB       186.6220   -7.1770   53.6190 C.3   170  ASP170      0.1410
    193  CG       185.4230   -7.8700   52.9880 C.2   170  ASP170      0.3668
    194  OD1      184.6100   -8.4840   53.7200 O.co2 170  ASP170     -0.2456
    195  OD2      185.2730   -7.7590   51.7560 O.co2 170  ASP170     -0.2456
@<TRIPOS>BOND
     1   109   108    1
     2   108   105    1
     3    96    97    1
     4   102   100    1
     5   184   185    2
     6   184   183    1
     7   104   105    1
     8   104    98   am
     9   105   106    1
    10   100    97    1
    11   100   101    1
    12    97    98    1
    13   126   125    1
    14   186   183    1
    15   186   187    1
    16    98    99    2
    17   183   182    1
    18   106   107    2
    19   125   124    1
    20   101   103    1
    21   182   177   am
    22   124   123    1
    23   178   177    2
    24   177   176    1
    25   123   122    1
    26   110   111    1
    27   122   119    1
    28    84    83   ar
    29    84    82   ar
    30    83    81   ar
    31    82    80   ar
    32   176   179    1
    33   176   175    1
    34   118   119    1
    35   118   112   am
    36    81    80   ar
    37   180   179    1
    38   117   115    1
    39    80    79    1
    40   111   114    1
    41   111   112    1
    42   116   115    1
    43   173   172    2
    44   179   181    1
    45   114   115    1
    46   119   120    1
    47   175   172   am
    48   112   113    2
    49   174   171    1
    50   172   171    1
    51    79    76    1
    52   121   120    2
    53   120   127   am
    54   171   170    1
    55    94    93    1
    56    76    77    1
    57    76    75    1
    58    78    77    2
    59   127   128    1
    60   170   167   am
    61    70    71    1
    62    70    69    1
    63    71    72    2
    64    69    68    1
    65    75    66   am
    66    93    95    1
    67    93    92    2
    68   128   129    1
    69   153   152   ar
    70   153   151   ar
    71     4     3    2
    72   136   135    1
    73   167   168    2
    74   167   166    1
    75    23    21    1
    76    91    92    1
    77    91    90    1
    78    72    74    1
    79    72    73    1
    80    66    67    2
    81    66    65    1
    82   152   150   ar
    83   131   129   am
    84   131   132    1
    85   151   149   ar
    86    64    65    1
    87    68    65    1
    88   129   130    2
    89   135   132    1
    90   195   193   ar
    91   166   169    1
    92   166   165    1
    93    90    89    1
    94     3     2    1
    95     3     8   am
    96    12     9    1
    97    12    13    1
    98     9     8    1
    99     9    10    1
   100    20    19    2
   101   132   133    1
   102    17    10   am
   103    17    18    1
   104    21    22    1
   105    21    18    1
   106   188   189    1
   107     7     5    1
   108   150   148   ar
   109     2     5    1
   110     2     1    1
   111    15    14    2
   112   149   148   ar
   113    10    11    2
   114   193   192    1
   115   193   194   ar
   116    18    19    1
   117   165   156   am
   118    19    24   am
   119   142   141    1
   120   148   147    1
   121    89    86    1
   122   133   137   am
   123   133   134    2
   124    14    13    1
   125    14    16   am
   126     5     6    1
   127   137   138    1
   128   192   189    1
   129   157   156    2
   130   189   190    1
   131    87    86    1
   132    87    88    2
   133   156   155    1
   134    86    85    1
   135    24    25    1
   136   141   138    1
   137    25    28    1
   138    25    26    1
   139    51    49   ar
   140    51    50   ar
   141   191   190    2
   142   138   139    1
   143    49    47   ar
   144   147   144    1
   145   164   162    1
   146    28    29    1
   147   154   155    1
   148   154   145   am
   149   155   158    1
   150    50    48   ar
   151    26    27    2
   152    30    29   ar
   153    30    32   ar
   154    47    48   ar
   155    47    46    1
   156    45    44    2
   157   144   145    1
   158   144   143    1
   159   145   146    2
   160   162   161    2
   161   162   163    1
   162   139   140    2
   163    29    31   ar
   164   158   159    1
   165    46    43    1
   166   161   160    1
   167    32    34   ar
   168   159   160    1
   169    44    43    1
   170    44    52   am
   171    53    52    1
   172    53    54    1
   173    43    42    1
   174    31    33   ar
   175    40    39    1
   176    55    54    2
   177    34    33   ar
   178    63    61   ar
   179    41    39    1
   180    39    36    1
   181    61    62   ar
   182    61    60    1
   183    36    37    1
   184    36    35    1
   185    38    37    2
   186    60    57    1
   187    59    58    2
   188    57    58    1
   189    57    56    1
