@<TRIPOS>MOLECULE
tmp/2f9wA00.pdb
 89 82 0 0 0
SMALL
GASTEIGER

@<TRIPOS>ATOM
      1  N         27.0400   16.2510   61.7750 N.3     9  ASN9       -0.1240
      2  CA        26.4440   17.2500   62.6510 C.3     9  ASN9        0.1653
      3  C         27.2960   18.5080   62.7450 C.2     9  ASN9        0.2266
      4  O         26.7670   19.6080   62.8810 O.2     9  ASN9       -0.2867
      5  CB        26.2280   16.6600   64.0460 C.3     9  ASN9        0.1155
      6  CG        25.2880   15.4720   64.0300 C.2     9  ASN9        0.2627
      7  OD1       25.6620   14.3620   64.4050 O.2     9  ASN9       -0.2716
      8  ND2       24.0640   15.6990   63.5860 N.am    9  ASN9       -0.0877
      9  N         23.4020   12.3920   58.7230 N.3    55  VAL55      -0.1245
     10  CA        23.0250   11.9610   60.0680 C.3    55  VAL55       0.1561
     11  C         22.3540   13.1370   60.7820 C.2    55  VAL55       0.2260
     12  O         22.0770   13.0860   61.9830 O.2    55  VAL55      -0.2867
     13  CB        24.2440   11.4740   60.8970 C.3    55  VAL55       0.0252
     14  CG1       24.7910   10.1820   60.2970 C.3    55  VAL55       0.0019
     15  CG2       25.3220   12.5430   60.9370 C.3    55  VAL55       0.0019
     16  N         21.6480   -3.9690   64.1150 N.3    92  TYR92      -0.1241
     17  CA        20.9010   -3.2990   65.1770 C.3    92  TYR92       0.1605
     18  C         19.5380   -3.9550   65.4060 C.2    92  TYR92       0.2264
     19  O         18.9210   -4.4570   64.4640 O.2    92  TYR92      -0.2867
     20  CB        20.6870   -1.8200   64.8320 C.3    92  TYR92       0.0534
     21  CG        21.5960   -0.8540   65.5740 C.ar   92  TYR92      -0.0201
     22  CD1       21.1380    0.4110   65.9450 C.ar   92  TYR92      -0.0009
     23  CD2       22.9020   -1.2040   65.9110 C.ar   92  TYR92      -0.0009
     24  CE1       21.9580    1.3040   66.6360 C.ar   92  TYR92       0.0417
     25  CE2       23.7350   -0.3150   66.6040 C.ar   92  TYR92       0.0417
     26  CZ        23.2540    0.9350   66.9600 C.ar   92  TYR92       0.1957
     27  OH        24.0660    1.8180   67.6330 O.3    92  TYR92      -0.2866
     28  N         17.7310    2.7240   63.6340 N.3    97  ARG97      -0.1231
     29  CA        18.4690    3.4820   64.6430 C.3    97  ARG97       0.1694
     30  C         19.9650    3.6110   64.3470 C.2    97  ARG97       0.2592
     31  O         20.6290    4.5070   64.8670 O.2    97  ARG97      -0.2718
     32  CB        18.2840    2.8260   66.0130 C.3    97  ARG97       0.0321
     33  CG        16.8840    2.9620   66.5970 C.3    97  ARG97       0.0489
     34  CD        16.6350    4.3860   67.0530 C.3    97  ARG97       0.2205
     35  NE        15.4480    4.4910   67.8950 N.pl3  97  ARG97      -0.0865
     36  CZ        15.1770    5.5360   68.6710 C.cat  97  ARG97       0.5346
     37  NH1       16.0090    6.5700   68.7140 N.pl3  97  ARG97       0.1354
     38  NH2       14.0760    5.5450   69.4090 N.pl3  97  ARG97       0.1354
     39  N         20.4910    2.7180   63.5160 N.am   98  LEU98      -0.1966
     40  CA        21.9110    2.7440   63.1770 C.3    98  LEU98       0.1728
     41  C         22.2790    3.9420   62.3100 C.2    98  LEU98       0.2616
     42  O         21.6930    4.1570   61.2500 O.2    98  LEU98      -0.2715
     43  CB        22.3060    1.4500   62.4570 C.3    98  LEU98       0.0311
     44  CG        23.7700    1.3220   62.0240 C.3    98  LEU98       0.0022
     45  CD1       24.6680    1.3260   63.2540 C.3    98  LEU98       0.0001
     46  CD2       23.9640    0.0260   61.2430 C.3    98  LEU98       0.0001
     47  N         23.2550    4.7250   62.7630 N.am   99  GLY99      -0.1955
     48  CA        23.6780    5.8820   61.9950 C.3    99  GLY99       0.1869
     49  C         24.0130    5.4670   60.5760 C.2    99  GLY99       0.2309
     50  O         24.7230    4.4790   60.3650 O.2    99  GLY99      -0.2863
     51  N         25.9730    6.8530   58.4870 N.3   101  ASP101     -0.1225
     52  CA        27.3890    6.9790   58.1770 C.3   101  ASP101      0.1805
     53  C         28.1050    5.6840   58.5700 C.2   101  ASP101      0.2597
     54  O         28.9620    5.1960   57.8320 O.2   101  ASP101     -0.2718
     55  CB        27.9960    8.2030   58.8830 C.3   101  ASP101      0.1424
     56  CG        27.7860    8.1980   60.3920 C.2   101  ASP101      0.3668
     57  OD1       26.8800    7.5030   60.8960 O.co2 101  ASP101     -0.2456
     58  OD2       28.5330    8.9190   61.0820 O.co2 101  ASP101     -0.2456
     59  N         27.7380    5.1210   59.7200 N.am  102  ARG102     -0.1979
     60  CA        28.3300    3.8620   60.1860 C.3   102  ARG102      0.1597
     61  C         27.9390    2.7330   59.2320 C.2   102  ARG102      0.2287
     62  O         28.7700    1.9140   58.8280 O.2   102  ARG102     -0.2864
     63  CB        27.8190    3.5090   61.5890 C.3   102  ARG102      0.0334
     64  CG        28.2460    4.4590   62.7060 C.3   102  ARG102      0.0492
     65  CD        27.5030    4.1300   63.9960 C.3   102  ARG102      0.2205
     66  NE        27.7830    2.7750   64.4720 N.pl3 102  ARG102     -0.0865
     67  CZ        27.1850    2.2080   65.5130 C.cat 102  ARG102      0.5346
     68  NH1       27.5070    0.9700   65.8760 N.pl3 102  ARG102      0.1354
     69  NH2       26.2610    2.8730   66.1920 N.pl3 102  ARG102      0.1354
     70  N         33.3300   12.5320   66.0380 N.3   125  ALA125     -0.1245
     71  CA        32.8960   11.5330   66.9920 C.3   125  ALA125      0.1562
     72  C         33.6240   10.2990   66.4550 C.2   125  ALA125      0.2260
     73  O         34.0910   10.3040   65.3140 O.2   125  ALA125     -0.2867
     74  CB        31.3950   11.3330   66.9190 C.3   125  ALA125      0.0290
     75  N         33.4520    6.0770   65.7760 N.3   127  THR127     -0.1218
     76  CA        32.5640    4.9280   65.6940 C.3   127  THR127      0.1862
     77  C         33.3880    3.7240   65.2810 C.2   127  THR127      0.2287
     78  O         34.4050    3.8540   64.5970 O.2   127  THR127     -0.2866
     79  CB        31.4270    5.1190   64.6580 C.3   127  THR127      0.1770
     80  OG1       31.9820    5.2150   63.3400 O.3   127  THR127     -0.2211
     81  CG2       30.6270    6.3750   64.9650 C.3   127  THR127      0.0375
     82  N         30.2790    3.7410   69.9050 N.3   142  ILE142     -0.1245
     83  CA        30.3000    5.1710   69.6620 C.3   142  ILE142      0.1561
     84  C         30.9930    5.8410   70.8420 C.2   142  ILE142      0.2260
     85  O         30.7200    5.5080   71.9900 O.2   142  ILE142     -0.2867
     86  CB        28.8790    5.7660   69.5910 C.3   142  ILE142      0.0252
     87  CG1       28.1110    5.1960   68.3950 C.3   142  ILE142      0.0019
     88  CG2       28.9690    7.2830   69.4910 C.3   142  ILE142      0.0019
     89  CD1       26.6260    5.5680   68.3930 C.3   142  ILE142      0.0001
@<TRIPOS>BOND
     1    54    53    2
     2    52    51    1
     3    52    53    1
     4    52    55    1
     5    53    59   am
     6     9    10    1
     7    62    61    2
     8    55    56    1
     9    61    60    1
    10    59    60    1
    11    10    11    1
    12    10    13    1
    13    60    63    1
    14    14    13    1
    15    50    49    2
    16    56    57   ar
    17    56    58   ar
    18    49    48    1
    19    11    12    2
    20    13    15    1
    21    46    44    1
    22    42    41    2
    23    63    64    1
    24     1     2    1
    25    48    47    1
    26    44    43    1
    27    44    45    1
    28    41    47   am
    29    41    40    1
    30    43    40    1
    31     2     3    1
    32     2     5    1
    33    64    65    1
    34     3     4    2
    35    40    39    1
    36    80    79    1
    37    39    30   am
    38     8     6   am
    39    28    29    1
    40    65    66    1
    41     6     5    1
    42     6     7    2
    43    16    17    1
    44    30    29    1
    45    30    31    2
    46    19    18    2
    47    66    67    2
    48    78    77    2
    49    29    32    1
    50    79    81    1
    51    79    76    1
    52    20    17    1
    53    20    21    1
    54    17    18    1
    55    77    76    1
    56    73    72    2
    57    67    68    1
    58    67    69    1
    59    21    23   ar
    60    21    22   ar
    61    76    75    1
    62    23    25   ar
    63    22    24   ar
    64    32    33    1
    65    70    71    1
    66    72    71    1
    67    33    34    1
    68    25    26   ar
    69    24    26   ar
    70    74    71    1
    71    26    27    1
    72    34    35    1
    73    35    36    2
    74    89    87    1
    75    87    86    1
    76    36    37    1
    77    36    38    1
    78    88    86    1
    79    86    83    1
    80    83    82    1
    81    83    84    1
    82    84    85    2
