@<TRIPOS>MOLECULE
tmp/2fa7A03.pdb
 103 101 0 0 0
SMALL
GASTEIGER

@<TRIPOS>ATOM
      1  N         20.1560   17.9690    9.0970 N.3    88  PRO88      -0.2102
      2  CA        19.0560   17.6160    9.9370 C.3    88  PRO88       0.1504
      3  C         18.7620   16.1350    9.8140 C.2    88  PRO88       0.2576
      4  O         18.9900   15.5680    8.7510 O.2    88  PRO88      -0.2718
      5  CB        17.9480   18.5470    9.4580 C.3    88  PRO88       0.0282
      6  CG        18.7280   19.7910    9.1850 C.3    88  PRO88       0.0208
      7  CD        20.1630   19.4080    8.9310 C.3    88  PRO88       0.0893
      8  N         18.2490   15.4730   10.8770 N.am   89  THR89      -0.1939
      9  CA        17.9470   14.0470   10.6040 C.3    89  THR89       0.2028
     10  C         16.5090   13.9250    9.9990 C.2    89  THR89       0.2642
     11  O         15.5910   14.6440   10.4110 O.2    89  THR89      -0.2714
     12  CB        18.1530   13.1930   11.8880 C.3    89  THR89       0.1808
     13  OG1       17.2490   13.6570   12.8920 O.3    89  THR89      -0.2208
     14  CG2       19.5850   13.3280   12.3840 C.3    89  THR89       0.0379
     15  N         16.3520   12.9830    9.0350 N.am   90  GLU90      -0.1976
     16  CA        15.0500   12.7500    8.3480 C.3    90  GLU90       0.1602
     17  C         14.0590   11.8320    9.0960 C.2    90  GLU90       0.2287
     18  O         12.8680   12.1060    9.1280 O.2    90  GLU90      -0.2864
     19  CB        15.2980   12.2130    6.9270 C.3    90  GLU90       0.0415
     20  CG        15.8730   13.2660    5.9780 C.3    90  GLU90       0.1163
     21  CD        15.2370   13.3270    4.5930 C.2    90  GLU90       0.3649
     22  OE1       14.3280   14.1760    4.3880 O.co2  90  GLU90      -0.2457
     23  OE2       15.6460   12.5280    3.7140 O.co2  90  GLU90      -0.2457
     24  N         11.8620    8.4480   14.7530 N.3   252  PRO252     -0.2116
     25  CA        13.0840    9.2160   15.0330 C.3   252  PRO252      0.1372
     26  C         14.3290    8.3160   14.8930 C.2   252  PRO252      0.2244
     27  O         14.2720    7.1300   15.2020 O.2   252  PRO252     -0.2868
     28  CB        12.8710    9.6730   16.4760 C.3   252  PRO252      0.0268
     29  CG        11.9770    8.6740   17.0300 C.3   252  PRO252      0.0207
     30  CD        10.9890    8.3600   15.9360 C.3   252  PRO252      0.0892
     31  N         23.1840   17.3600   17.0850 N.3   310  LEU310     -0.1231
     32  CA        21.7560   17.5650   17.2500 C.3   310  LEU310      0.1693
     33  C         21.2670   19.0180   17.1550 C.2   310  LEU310      0.2593
     34  O         20.3400   19.3060   16.4010 O.2   310  LEU310     -0.2718
     35  CB        21.2780   16.8770   18.5310 C.3   310  LEU310      0.0284
     36  CG        21.4030   15.3460   18.4940 C.3   310  LEU310      0.0019
     37  CD1       20.8470   14.7360   19.7640 C.3   310  LEU310      0.0001
     38  CD2       20.7010   14.7550   17.2490 C.3   310  LEU310      0.0001
     39  N         21.8460   19.9400   17.9090 N.am  311  GLY311     -0.1942
     40  CA        21.3980   21.3280   17.7940 C.3   311  GLY311      0.2014
     41  C         19.9850   21.5250   18.3200 C.2   311  GLY311      0.2639
     42  O         19.0230   20.9080   17.8340 O.2   311  GLY311     -0.2714
     43  N         19.8650   22.4020   19.3110 N.am  312  GLY312     -0.1954
     44  CA        18.6080   22.5990   20.0010 C.3   312  GLY312      0.1869
     45  C         18.7880   21.9370   21.3450 C.2   312  GLY312      0.2309
     46  O         17.9310   22.0270   22.2100 O.2   312  GLY312     -0.2863
     47  N         18.4410   19.0470   22.5290 N.3   314  PRO314     -0.2116
     48  CA        17.2180   18.3220   22.8730 C.3   314  PRO314      0.1372
     49  C         17.1720   17.4850   24.1410 C.2   314  PRO314      0.2244
     50  O         18.1170   16.7610   24.4490 O.2   314  PRO314     -0.2868
     51  CB        17.0380   17.3720   21.6810 C.3   314  PRO314      0.0268
     52  CG        17.7870   17.9260   20.6020 C.3   314  PRO314      0.0207
     53  CD        18.8610   18.7900   21.1420 C.3   314  PRO314      0.0892
     54  N         12.5470   13.8500   25.3140 N.3   317  GLU317     -0.1231
     55  CA        11.1640   14.0210   24.8830 C.3   317  GLU317      0.1699
     56  C         11.1520   14.8540   23.6140 C.2   317  GLU317      0.2592
     57  O         10.4190   14.5520   22.6640 O.2   317  GLU317     -0.2718
     58  CB        10.3190   14.6940   25.9660 C.3   317  GLU317      0.0402
     59  CG         9.8290   13.7540   27.0700 C.3   317  GLU317      0.1161
     60  CD         9.1660   14.5020   28.2310 C.2   317  GLU317      0.3649
     61  OE1        9.7290   15.5290   28.6890 O.co2 317  GLU317     -0.2457
     62  OE2        8.0800   14.0540   28.7000 O.co2 317  GLU317     -0.2457
     63  N         11.9770   15.8940   23.5890 N.am  318  GLU318     -0.1966
     64  CA        12.0730   16.7370   22.4080 C.3   318  GLU318      0.1733
     65  C         12.6170   15.9520   21.2290 C.2   318  GLU318      0.2616
     66  O         12.1750   16.1420   20.1070 O.2   318  GLU318     -0.2715
     67  CB        12.9890   17.9420   22.6800 C.3   318  GLU318      0.0429
     68  CG        12.3750   19.0500   23.5240 C.3   318  GLU318      0.1163
     69  CD        13.3220   20.2320   23.7710 C.2   318  GLU318      0.3649
     70  OE1       14.4290   20.0120   24.3040 O.co2 318  GLU318     -0.2457
     71  OE2       12.9500   21.3830   23.4310 O.co2 318  GLU318     -0.2457
     72  N         13.5820   15.0770   21.4860 N.am  319  TYR319     -0.1974
     73  CA        14.2170   14.3260   20.4090 C.3   319  TYR319      0.1639
     74  C         13.2650   13.3450   19.7340 C.2   319  TYR319      0.2290
     75  O         13.2660   13.2140   18.5070 O.2   319  TYR319     -0.2864
     76  CB        15.4880   13.6020   20.8790 C.3   319  TYR319      0.0560
     77  CG        16.0820   12.8030   19.7650 C.ar  319  TYR319     -0.0198
     78  CD1       16.7690   13.4320   18.7220 C.ar  319  TYR319     -0.0009
     79  CD2       15.9070   11.4280   19.7020 C.ar  319  TYR319     -0.0009
     80  CE1       17.3010   12.7000   17.6670 C.ar  319  TYR319      0.0417
     81  CE2       16.4180   10.7060   18.6620 C.ar  319  TYR319      0.0417
     82  CZ        17.1150   11.3380   17.6460 C.ar  319  TYR319      0.1957
     83  OH        17.6120   10.5900   16.6010 O.3   319  TYR319     -0.2866
     84  N          9.9740   13.5050   20.0030 N.3   321  GLY321     -0.1210
     85  CA         8.8200   14.2720   19.5900 C.3   321  GLY321      0.1956
     86  C          7.5330   13.8160   20.3380 C.2   321  GLY321      0.2613
     87  O          7.3690   12.6320   20.6360 O.2   321  GLY321     -0.2717
     88  N          6.6530   14.8110   20.6380 N.am  322  THR322     -0.1938
     89  CA         5.4040   14.6200   21.3740 C.3   322  THR322      0.2028
     90  C          4.4910   13.5710   20.7420 C.2   322  THR322      0.2642
     91  O          3.8120   12.8270   21.4580 O.2   322  THR322     -0.2714
     92  CB         4.7410   16.0120   21.5730 C.3   322  THR322      0.1808
     93  OG1        5.7480   17.0350   21.5290 O.3   322  THR322     -0.2208
     94  CG2        4.0160   16.0650   22.9020 C.3   322  THR322      0.0379
     95  N          4.4130   13.4970   19.4450 N.am  323  GLU323     -0.1976
     96  CA         3.5940   12.4450   18.8890 C.3   323  GLU323      0.1602
     97  C          4.0730   11.0990   19.4070 C.2   323  GLU323      0.2287
     98  O          3.3210   10.3580   20.0320 O.2   323  GLU323     -0.2864
     99  CB         3.7090   12.4030   17.3550 C.3   323  GLU323      0.0415
    100  CG         2.5460   13.0590   16.6000 C.3   323  GLU323      0.1163
    101  CD         2.4050   12.5380   15.1770 C.2   323  GLU323      0.3649
    102  OE1        2.2790   11.3030   15.0070 O.co2 323  GLU323     -0.2457
    103  OE2        2.4060   13.3790   14.2480 O.co2 323  GLU323     -0.2457
@<TRIPOS>BOND
     1    23    21   ar
     2    22    21   ar
     3    21    20    1
     4    20    19    1
     5    19    16    1
     6    16    15    1
     7    16    17    1
     8     4     3    2
     9     7     1    1
    10     7     6    1
    11    15    10   am
    12    17    18    2
    13     1     2    1
    14     6     5    1
    15     5     2    1
    16     3     2    1
    17     3     8   am
    18    10    11    2
    19    10     9    1
    20     9     8    1
    21     9    12    1
    22    12    14    1
    23    12    13    1
    24   103   101   ar
    25    24    25    1
    26    24    30    1
    27    26    25    1
    28    26    27    2
    29   102   101   ar
    30    25    28    1
    31   101   100    1
    32    30    29    1
    33    34    33    2
    34    28    29    1
    35   100    99    1
    36    83    82    1
    37    31    32    1
    38    33    32    1
    39    33    39   am
    40    38    36    1
    41    32    35    1
    42    99    96    1
    43    82    80   ar
    44    82    81   ar
    45    80    78   ar
    46    40    39    1
    47    40    41    1
    48    42    41    2
    49    41    43   am
    50    36    35    1
    51    36    37    1
    52    75    74    2
    53    81    79   ar
    54    78    77   ar
    55    96    97    1
    56    96    95    1
    57    43    44    1
    58    97    98    2
    59    95    90   am
    60    85    84    1
    61    85    86    1
    62    79    77   ar
    63    74    73    1
    64    77    76    1
    65    44    45    1
    66    66    65    2
    67    86    87    2
    68    86    88   am
    69    73    76    1
    70    73    72    1
    71    52    53    1
    72    52    51    1
    73    88    89    1
    74    90    89    1
    75    90    91    2
    76    53    47    1
    77    65    72   am
    78    65    64    1
    79    45    46    2
    80    89    92    1
    81    93    92    1
    82    92    94    1
    83    51    48    1
    84    64    67    1
    85    64    63    1
    86    47    48    1
    87    57    56    2
    88    67    68    1
    89    48    49    1
    90    71    69   ar
    91    68    69    1
    92    63    56   am
    93    56    55    1
    94    69    70   ar
    95    49    50    2
    96    55    54    1
    97    55    58    1
    98    58    59    1
    99    59    60    1
   100    60    61   ar
   101    60    62   ar
