@<TRIPOS>MOLECULE
tmp/2fadB00.pdb
 129 121 0 0 0
SMALL
GASTEIGER

@<TRIPOS>ATOM
      1  N         45.7360   38.4560    1.7740 N.3    28  PHE28      -0.1227
      2  CA        44.7370   37.4890    1.2960 C.3    28  PHE28       0.1736
      3  C         45.3500   36.2060    0.7210 C.2    28  PHE28       0.2595
      4  O         44.8990   35.1040    1.0480 O.2    28  PHE28      -0.2718
      5  CB        43.8120   38.1190    0.2440 C.3    28  PHE28       0.0547
      6  CG        43.0620   39.3390    0.7330 C.ar   28  PHE28      -0.0202
      7  CD1       43.3750   40.6120    0.2240 C.ar   28  PHE28      -0.0042
      8  CD2       42.0490   39.2210    1.7030 C.ar   28  PHE28      -0.0042
      9  CE1       42.7040   41.7480    0.6670 C.ar   28  PHE28      -0.0003
     10  CE2       41.3700   40.3540    2.1530 C.ar   28  PHE28      -0.0003
     11  CZ        41.6990   41.6280    1.6260 C.ar   28  PHE28      -0.0000
     12  N         46.3550   36.3490   -0.1500 N.am   29  VAL29      -0.1980
     13  CA        47.0070   35.1980   -0.7930 C.3    29  VAL29       0.1595
     14  C         47.9660   34.4380    0.1270 C.2    29  VAL29       0.2287
     15  O         47.8410   33.2240    0.3410 O.2    29  VAL29      -0.2864
     16  CB        47.8210   35.6490   -2.0340 C.3    29  VAL29       0.0276
     17  CG1       48.5880   34.4570   -2.6370 C.3    29  VAL29       0.0022
     18  CG2       46.8980   36.2230   -3.0730 C.3    29  VAL29       0.0022
     19  N         44.0060   32.5240   -0.2290 N.3    34  ALA34      -0.1231
     20  CA        43.1390   32.7740   -1.3690 C.3    34  ALA34       0.1694
     21  C         43.7840   32.3710   -2.6850 C.2    34  ALA34       0.2592
     22  O         44.9110   32.7950   -2.9940 O.2    34  ALA34      -0.2718
     23  CB        42.7600   34.2570   -1.4280 C.3    34  ALA34       0.0304
     24  N         43.0890   31.5420   -3.4550 N.am   35  ASP35      -0.1960
     25  CA        43.5900   31.1800   -4.7690 C.3    35  ASP35       0.1840
     26  C         43.0890   32.2470   -5.7520 C.2    35  ASP35       0.2622
     27  O         42.4050   33.2020   -5.3420 O.2    35  ASP35      -0.2715
     28  CB        43.1700   29.7540   -5.1850 C.3    35  ASP35       0.1450
     29  CG        41.6850   29.5090   -5.0720 C.2    35  ASP35       0.3671
     30  OD1       40.8960   30.3560   -5.5350 O.co2  35  ASP35      -0.2456
     31  OD2       41.3090   28.4530   -4.5380 O.co2  35  ASP35      -0.2456
     32  N         43.4280   32.0930   -7.0320 N.am   36  SER36      -0.1950
     33  CA        43.0600   33.0760   -8.0440 C.3    36  SER36       0.1924
     34  C         41.5840   33.3430   -8.1340 C.2    36  SER36       0.2314
     35  O         41.1600   34.4880   -8.2510 O.2    36  SER36      -0.2863
     36  CB        43.5100   32.6530   -9.4290 C.3    36  SER36       0.2116
     37  OG        44.8680   32.2900   -9.5550 O.3    36  SER36      -0.2180
     38  N         40.0480   35.4410   -5.0600 N.3    39  THR39      -0.1218
     39  CA        40.1770   36.8750   -5.0400 C.3    39  THR39       0.1862
     40  C         39.1060   37.5220   -5.8950 C.2    39  THR39       0.2287
     41  O         38.4800   38.4980   -5.4660 O.2    39  THR39      -0.2866
     42  CB        41.5860   37.3350   -5.4800 C.3    39  THR39       0.1770
     43  OG1       41.8660   36.8600   -6.7920 O.3    39  THR39      -0.2211
     44  CG2       42.6370   36.8090   -4.5160 C.3    39  THR39       0.0375
     45  N         36.0050   37.4150   -3.9380 N.3    42  LEU42      -0.1231
     46  CA        36.0030   38.2940   -2.7600 C.3    42  LEU42       0.1693
     47  C         35.7610   39.7610   -3.2110 C.2    42  LEU42       0.2591
     48  O         35.0470   40.5370   -2.5510 O.2    42  LEU42      -0.2718
     49  CB        37.3320   38.1730   -2.0280 C.3    42  LEU42       0.0284
     50  CG        37.6090   39.1050   -0.8560 C.3    42  LEU42       0.0019
     51  CD1       36.5480   38.8820    0.2060 C.3    42  LEU42       0.0001
     52  CD2       39.0090   38.8180   -0.2860 C.3    42  LEU42       0.0001
     53  N         36.3320   40.1360   -4.3510 N.am   43  VAL43      -0.1980
     54  CA        36.1470   41.4940   -4.8740 C.3    43  VAL43       0.1595
     55  C         34.6830   41.7160   -5.2200 C.2    43  VAL43       0.2287
     56  O         34.0770   42.7150   -4.8380 O.2    43  VAL43      -0.2864
     57  CB        36.9780   41.7390   -6.1550 C.3    43  VAL43       0.0276
     58  CG1       36.6350   43.1150   -6.7450 C.3    43  VAL43       0.0022
     59  CG2       38.4590   41.7140   -5.8220 C.3    43  VAL43       0.0022
     60  N         32.4420   42.1840   -2.1000 N.3    46  LEU46      -0.1245
     61  CA        32.5380   43.4760   -1.4330 C.3    46  LEU46       0.1561
     62  C         31.9140   44.6060   -2.2520 C.2    46  LEU46       0.2260
     63  O         31.4300   45.5770   -1.6850 O.2    46  LEU46      -0.2867
     64  CB        33.9890   43.7930   -1.1090 C.3    46  LEU46       0.0270
     65  CG        34.5970   42.8880   -0.0410 C.3    46  LEU46       0.0019
     66  CD1       36.0510   43.0960   -0.0760 C.3    46  LEU46       0.0001
     67  CD2       34.0650   43.1980    1.3430 C.3    46  LEU46       0.0001
     68  N         35.1770   48.6890   -8.0450 N.3    54  ILE54      -0.1245
     69  CA        36.6060   48.9420   -7.9660 C.3    54  ILE54       0.1561
     70  C         37.2890   48.4440   -9.2490 C.2    54  ILE54       0.2260
     71  O         37.1600   47.2590   -9.6000 O.2    54  ILE54      -0.2867
     72  CB        37.2410   48.1500   -6.8160 C.3    54  ILE54       0.0252
     73  CG1       36.4910   48.4230   -5.5130 C.3    54  ILE54       0.0019
     74  CG2       38.7220   48.4890   -6.7160 C.3    54  ILE54       0.0019
     75  CD1       36.9580   47.5970   -4.3400 C.3    54  ILE54       0.0001
     76  N         42.1100   47.0320   -7.7080 N.3    59  ALA59      -0.1231
     77  CA        41.8720   45.8630   -6.8660 C.3    59  ALA59       0.1694
     78  C         43.1270   44.9780   -6.7340 C.2    59  ALA59       0.2591
     79  O         43.3990   44.4140   -5.6710 O.2    59  ALA59      -0.2718
     80  CB        40.6930   45.0540   -7.4180 C.3    59  ALA59       0.0304
     81  N         43.9040   44.8940   -7.8100 N.am   60  GLU60      -0.1979
     82  CA        45.1360   44.1010   -7.8330 C.3    60  GLU60       0.1602
     83  C         46.1670   44.6210   -6.8160 C.2    60  GLU60       0.2287
     84  O         47.1240   43.9130   -6.4670 O.2    60  GLU60      -0.2864
     85  CB        45.7290   44.1630   -9.2400 C.3    60  GLU60       0.0415
     86  CG        46.9520   43.3010   -9.4750 C.3    60  GLU60       0.1163
     87  CD        47.5090   43.4860  -10.8730 C.2    60  GLU60       0.3649
     88  OE1       46.7820   43.1880  -11.8460 O.co2  60  GLU60      -0.2457
     89  OE2       48.6670   43.9380  -11.0000 O.co2  60  GLU60      -0.2457
     90  N         45.2070   45.9590   -3.6760 N.3    62  ILE62      -0.1231
     91  CA        44.6910   45.7740   -2.3170 C.3    62  ILE62       0.1692
     92  C         45.0530   44.3590   -1.8520 C.2    62  ILE62       0.2592
     93  O         44.2610   43.4230   -1.9340 O.2    62  ILE62      -0.2718
     94  CB        43.1810   45.9940   -2.3080 C.3    62  ILE62       0.0266
     95  CG1       42.9080   47.4140   -2.7980 C.3    62  ILE62       0.0019
     96  CG2       42.6040   45.8060   -0.8990 C.3    62  ILE62       0.0020
     97  CD1       41.4650   47.8110   -2.8180 C.3    62  ILE62       0.0001
     98  N         46.2660   44.2100   -1.3410 N.am   63  THR63      -0.1953
     99  CA        46.7440   42.8890   -0.9330 C.3    63  THR63       0.1897
    100  C         46.4580   42.4460    0.5080 C.2    63  THR63       0.2313
    101  O         46.5730   41.2510    0.8190 O.2    63  THR63      -0.2863
    102  CB        48.2600   42.7900   -1.1450 C.3    63  THR63       0.1794
    103  OG1       48.9060   43.7960   -0.3550 O.3    63  THR63      -0.2208
    104  CG2       48.6250   43.0110   -2.6160 C.3    63  THR63       0.0378
    105  N         41.8560   46.7260    2.2510 N.3    68  ALA68      -0.1245
    106  CA        40.4560   46.5640    1.8790 C.3    68  ALA68       0.1562
    107  C         39.5870   47.4810    2.7210 C.2    68  ALA68       0.2260
    108  O         38.7670   48.1970    2.1850 O.2    68  ALA68      -0.2867
    109  CB        40.0230   45.1110    2.0510 C.3    68  ALA68       0.0290
    110  N         39.9220   51.0740    1.6160 N.3    71  TYR71      -0.1227
    111  CA        39.3200   51.3990    0.3320 C.3    71  TYR71       0.1736
    112  C         37.8060   51.5800    0.4530 C.2    71  TYR71       0.2595
    113  O         37.2420   52.4630   -0.1740 O.2    71  TYR71      -0.2718
    114  CB        39.6120   50.3020   -0.7120 C.3    71  TYR71       0.0548
    115  CG        39.1260   50.6780   -2.0990 C.ar   71  TYR71      -0.0200
    116  CD1       39.9670   51.3120   -2.9970 C.ar   71  TYR71      -0.0009
    117  CD2       37.8070   50.4600   -2.4740 C.ar   71  TYR71      -0.0009
    118  CE1       39.5080   51.7280   -4.2470 C.ar   71  TYR71       0.0417
    119  CE2       37.3340   50.8840   -3.7090 C.ar   71  TYR71       0.0417
    120  CZ        38.1860   51.5140   -4.5850 C.ar   71  TYR71       0.1957
    121  OH        37.7030   51.9660   -5.7930 O.3    71  TYR71      -0.2866
    122  N         37.1570   50.7390    1.2540 N.am   72  ILE72      -0.1980
    123  CA        35.7100   50.8340    1.4400 C.3    72  ILE72       0.1595
    124  C         35.3320   52.1400    2.1520 C.2    72  ILE72       0.2287
    125  O         34.3590   52.8230    1.7660 O.2    72  ILE72      -0.2864
    126  CB        35.1920   49.6050    2.2310 C.3    72  ILE72       0.0276
    127  CG1       35.4480   48.3210    1.4080 C.3    72  ILE72       0.0022
    128  CG2       33.6820   49.7320    2.5230 C.3    72  ILE72       0.0022
    129  CD1       34.7330   48.3160    0.0820 C.3    72  ILE72       0.0001
@<TRIPOS>BOND
     1    88    87   ar
     2    89    87   ar
     3    87    86    1
     4    71    70    2
     5    37    36    1
     6    86    85    1
     7    36    33    1
     8    70    69    1
     9    85    82    1
    10    35    34    2
    11    34    33    1
    12    68    69    1
    13    33    32    1
    14    69    72    1
    15    82    81    1
    16    82    83    1
    17    81    78   am
    18    76    77    1
    19    80    77    1
    20    32    26   am
    21    77    78    1
    22    72    74    1
    23    72    73    1
    24    83    84    2
    25    43    42    1
    26    58    57    1
    27    78    79    2
    28    57    59    1
    29    57    54    1
    30    40    41    2
    31    40    39    1
    32   121   120    1
    33    26    27    2
    34    26    25    1
    35    30    29   ar
    36    73    75    1
    37    42    39    1
    38    42    44    1
    39    55    54    1
    40    55    56    2
    41    28    29    1
    42    28    25    1
    43    29    31   ar
    44    38    39    1
    45    54    53    1
    46    25    24    1
    47   120   118   ar
    48   120   119   ar
    49    53    47   am
    50   118   116   ar
    51    45    46    1
    52   119   117   ar
    53    90    91    1
    54    24    21   am
    55    47    46    1
    56    47    48    2
    57    18    16    1
    58   116   115   ar
    59    22    21    2
    60    97    95    1
    61    95    94    1
    62    46    49    1
    63    21    20    1
    64    17    16    1
    65   104   102    1
    66   117   115   ar
    67    91    94    1
    68    91    92    1
    69    94    96    1
    70    62    63    2
    71    62    61    1
    72    60    61    1
    73   115   114    1
    74    16    13    1
    75    49    50    1
    76    93    92    2
    77    92    98   am
    78    61    64    1
    79    23    20    1
    80    20    19    1
    81    98    99    1
    82   102    99    1
    83   102   103    1
    84    64    65    1
    85    99   100    1
    86    50    52    1
    87    50    51    1
    88    13    12    1
    89    13    14    1
    90   114   111    1
    91   113   112    2
    92    12     3   am
    93    66    65    1
    94    65    67    1
    95   129   127    1
    96    14    15    2
    97     7     9   ar
    98     7     6   ar
    99     5     6    1
   100     5     2    1
   101   111   112    1
   102   111   110    1
   103   112   122   am
   104   100   101    2
   105     9    11   ar
   106     3     4    2
   107     3     2    1
   108     6     8   ar
   109   122   123    1
   110     2     1    1
   111   127   126    1
   112   123   124    1
   113   123   126    1
   114    11    10   ar
   115     8    10   ar
   116   125   124    2
   117   106   109    1
   118   106   105    1
   119   106   107    1
   120   108   107    2
   121   126   128    1
