@<TRIPOS>MOLECULE
tmp/2fafA01.pdb
 117 112 0 0 0
SMALL
GASTEIGER

@<TRIPOS>ATOM
      1  N         -8.6690  -55.6590   75.0100 N.3    71  ALA71      -0.1231
      2  CA        -7.8280  -55.4370   73.8200 C.3    71  ALA71       0.1694
      3  C         -8.6260  -54.7290   72.7430 C.2    71  ALA71       0.2592
      4  O         -9.8670  -54.6840   72.8170 O.2    71  ALA71      -0.2718
      5  CB        -7.3320  -56.7960   73.2630 C.3    71  ALA71       0.0304
      6  N         -7.9360  -54.1970   71.7300 N.am   72  ARG72      -0.1966
      7  CA        -8.6120  -53.7960   70.4780 C.3    72  ARG72       0.1729
      8  C         -9.4630  -54.9320   69.9450 C.2    72  ARG72       0.2616
      9  O         -9.0900  -56.1160   70.0490 O.2    72  ARG72      -0.2715
     10  CB        -7.6200  -53.3780   69.3700 C.3    72  ARG72       0.0348
     11  CG        -6.9090  -52.0640   69.6320 C.3    72  ARG72       0.0492
     12  CD        -5.9910  -51.6530   68.4510 C.3    72  ARG72       0.2205
     13  NE        -4.8160  -52.5200   68.3560 N.pl3  72  ARG72      -0.0865
     14  CZ        -4.6910  -53.5410   67.5190 C.cat  72  ARG72       0.5346
     15  NH1       -5.6650  -53.8700   66.6640 N.pl3  72  ARG72       0.1354
     16  NH2       -3.5720  -54.2460   67.5350 N.pl3  72  ARG72       0.1354
     17  N        -10.6090  -54.5850   69.3650 N.am   73  VAL73      -0.1963
     18  CA       -11.4960  -55.5740   68.7640 C.3    73  VAL73       0.1727
     19  C        -11.4750  -55.2830   67.2760 C.2    73  VAL73       0.2616
     20  O        -12.2320  -54.4410   66.7920 O.2    73  VAL73      -0.2715
     21  CB       -12.9630  -55.4830   69.2990 C.3    73  VAL73       0.0290
     22  CG1      -13.7900  -56.6440   68.7660 C.3    73  VAL73       0.0023
     23  CG2      -13.0170  -55.4890   70.8540 C.3    73  VAL73       0.0023
     24  N        -10.6170  -55.9870   66.5430 N.am   74  GLU74      -0.1977
     25  CA       -10.4470  -55.6880   65.1210 C.3    74  GLU74       0.1602
     26  C        -11.7470  -55.8460   64.3330 C.2    74  GLU74       0.2287
     27  O        -12.0530  -55.0230   63.4510 O.2    74  GLU74      -0.2864
     28  CB        -9.2690  -56.4790   64.5230 C.3    74  GLU74       0.0415
     29  CG        -7.9300  -55.8670   64.9130 C.3    74  GLU74       0.1163
     30  CD        -6.7240  -56.7480   64.6110 C.2    74  GLU74       0.3649
     31  OE1       -5.6260  -56.4590   65.1530 O.co2  74  GLU74      -0.2457
     32  OE2       -6.8800  -57.7350   63.8590 O.co2  74  GLU74      -0.2457
     33  N        -11.0530  -49.7410   76.8040 N.3   221  TYR221     -0.1227
     34  CA        -9.6660  -50.2070   76.7030 C.3   221  TYR221      0.1736
     35  C         -8.8260  -49.5210   75.6360 C.2   221  TYR221      0.2596
     36  O         -9.2600  -49.3590   74.5120 O.2   221  TYR221     -0.2718
     37  CB        -9.5900  -51.7290   76.4910 C.3   221  TYR221      0.0548
     38  CG        -8.3210  -52.3170   77.0830 C.ar  221  TYR221     -0.0200
     39  CD1       -8.2810  -52.7170   78.4150 C.ar  221  TYR221     -0.0009
     40  CD2       -7.1500  -52.4410   76.3210 C.ar  221  TYR221     -0.0009
     41  CE1       -7.1120  -53.2470   78.9840 C.ar  221  TYR221      0.0417
     42  CE2       -5.9730  -52.9580   76.8760 C.ar  221  TYR221      0.0417
     43  CZ        -5.9640  -53.3590   78.2210 C.ar  221  TYR221      0.1957
     44  OH        -4.8360  -53.8950   78.8160 O.3   221  TYR221     -0.2866
     45  N         -7.5980  -49.1790   76.0340 N.am  222  GLY222     -0.1942
     46  CA        -6.5050  -48.7500   75.1480 C.3   222  GLY222      0.2014
     47  C         -6.7970  -48.2360   73.7580 C.2   222  GLY222      0.2639
     48  O         -7.2940  -47.1280   73.6140 O.2   222  GLY222     -0.2714
     49  N         -6.4900  -49.0300   72.7330 N.am  223  GLY223     -0.1954
     50  CA        -6.6670  -48.5940   71.3480 C.3   223  GLY223      0.1869
     51  C         -8.0880  -48.3120   70.9240 C.2   223  GLY223      0.2309
     52  O         -8.3330  -47.6190   69.9040 O.2   223  GLY223     -0.2863
     53  N         -4.2930  -42.6290   70.1910 N.3   229  LYS229     -0.1231
     54  CA        -3.4190  -43.7770   70.1850 C.3   229  LYS229      0.1693
     55  C         -3.1310  -44.4220   68.7500 C.2   229  LYS229      0.2591
     56  O         -2.0190  -44.6050   68.2390 O.2   229  LYS229     -0.2718
     57  CB        -3.8750  -44.8000   71.2620 C.3   229  LYS229      0.0285
     58  CG        -2.8980  -45.9700   71.5660 C.3   229  LYS229      0.0035
     59  CD        -1.5490  -45.4440   72.0420 C.3   229  LYS229      0.0206
     60  CE        -0.4470  -46.4350   71.8750 C.3   229  LYS229      0.1093
     61  NZ         0.8480  -45.7200   71.7000 N.3   229  LYS229     -0.1314
     62  N         -4.2710  -44.8600   68.2060 N.am  230  LYS230     -0.1980
     63  CA        -4.3000  -45.5570   66.9080 C.3   230  LYS230      0.1596
     64  C         -5.3490  -44.9710   65.9790 C.2   230  LYS230      0.2287
     65  O         -5.0970  -44.8030   64.7750 O.2   230  LYS230     -0.2864
     66  CB        -4.5640  -47.0720   67.1030 C.3   230  LYS230      0.0298
     67  CG        -3.5100  -47.8010   67.8890 C.3   230  LYS230      0.0038
     68  CD        -2.1710  -47.7500   67.2150 C.3   230  LYS230      0.0206
     69  CE        -1.2230  -48.7060   67.9550 C.3   230  LYS230      0.1093
     70  NZ         0.1650  -48.6450   67.4960 N.3   230  LYS230     -0.1314
     71  N          4.5630  -54.2230   68.8300 N.3   274  CYS274     -0.1235
     72  CA         3.8020  -53.0250   69.1800 C.3   274  CYS274      0.1677
     73  C          3.5620  -53.0570   70.6840 C.2   274  CYS274      0.2270
     74  O          2.9620  -53.9950   71.1980 O.2   274  CYS274     -0.2867
     75  CB         2.4820  -52.9890   68.3950 C.3   274  CYS274      0.0956
     76  SG         1.2410  -51.7550   68.8940 S.3   274  CYS274     -0.0801
     77  N          2.4460  -46.3220   76.0720 N.3   319  PHE319     -0.1241
     78  CA         1.3500  -47.2010   76.4510 C.3   319  PHE319      0.1605
     79  C          1.8360  -48.5980   76.0970 C.2   319  PHE319      0.2264
     80  O          1.5250  -49.1120   75.0080 O.2   319  PHE319     -0.2867
     81  CB         0.1020  -46.8360   75.6590 C.3   319  PHE319      0.0534
     82  CG        -1.1160  -47.6290   76.0380 C.ar  319  PHE319     -0.0203
     83  CD1       -1.6540  -47.5220   77.3150 C.ar  319  PHE319     -0.0042
     84  CD2       -1.7290  -48.4700   75.1200 C.ar  319  PHE319     -0.0042
     85  CE1       -2.7600  -48.2580   77.6940 C.ar  319  PHE319     -0.0003
     86  CE2       -2.8750  -49.2000   75.4790 C.ar  319  PHE319     -0.0003
     87  CZ        -3.3940  -49.0860   76.7700 C.ar  319  PHE319     -0.0000
     88  N         -2.0810  -58.8270   77.4710 N.3   389  ASN389     -0.1240
     89  CA        -2.1830  -57.5080   76.8430 C.3   389  ASN389      0.1653
     90  C         -2.2460  -56.3820   77.8800 C.2   389  ASN389      0.2266
     91  O         -2.6360  -55.2390   77.5560 O.2   389  ASN389     -0.2867
     92  CB        -3.3790  -57.4540   75.8730 C.3   389  ASN389      0.1155
     93  CG        -3.3520  -56.2210   74.9740 C.2   389  ASN389      0.2627
     94  OD1       -2.2990  -55.8450   74.4280 O.2   389  ASN389     -0.2716
     95  ND2       -4.4980  -55.5630   74.8460 N.am  389  ASN389     -0.0877
     96  N         -1.0050  -53.4540   80.5190 N.3   391  ARG391     -0.1245
     97  CA        -0.3080  -52.2380   80.0690 C.3   391  ARG391      0.1563
     98  C          0.2250  -51.3680   81.1790 C.2   391  ARG391      0.2260
     99  O         -0.2990  -51.3720   82.3060 O.2   391  ARG391     -0.2867
    100  CB        -1.2310  -51.3420   79.2120 C.3   391  ARG391      0.0307
    101  CG        -1.7920  -52.0070   77.9710 C.3   391  ARG391      0.0489
    102  CD        -0.7810  -51.9790   76.8280 C.3   391  ARG391      0.2205
    103  NE        -1.1980  -52.8250   75.7180 N.pl3 391  ARG391     -0.0865
    104  CZ        -0.8300  -52.6420   74.4510 C.cat 391  ARG391      0.5346
    105  NH1       -0.0350  -51.6250   74.1060 N.pl3 391  ARG391      0.1354
    106  NH2       -1.2490  -53.4960   73.5200 N.pl3 391  ARG391      0.1354
    107  N         -4.3260  -51.0680   60.9320 N.3   459  PHE459     -0.1241
    108  CA        -4.3690  -49.6220   61.1080 C.3   459  PHE459      0.1605
    109  C         -4.5110  -48.8080   59.8280 C.2   459  PHE459      0.2264
    110  O         -4.3630  -47.5960   59.8660 O.2   459  PHE459     -0.2867
    111  CB        -3.1070  -49.1430   61.8560 C.3   459  PHE459      0.0534
    112  CG        -2.8470  -49.9000   63.1260 C.ar  459  PHE459     -0.0203
    113  CD1       -3.7830  -49.8740   64.1600 C.ar  459  PHE459     -0.0042
    114  CD2       -1.6760  -50.6600   63.2850 C.ar  459  PHE459     -0.0042
    115  CE1       -3.5780  -50.5970   65.3540 C.ar  459  PHE459     -0.0003
    116  CE2       -1.4590  -51.4000   64.4770 C.ar  459  PHE459     -0.0003
    117  CZ        -2.4150  -51.3510   65.5130 C.ar  459  PHE459     -0.0000
@<TRIPOS>BOND
     1   109   110    2
     2   109   108    1
     3   107   108    1
     4   108   111    1
     5   111   112    1
     6   112   114   ar
     7   112   113   ar
     8   114   116   ar
     9    27    26    2
    10    32    30   ar
    11   113   115   ar
    12    26    25    1
    13   116   117   ar
    14    28    29    1
    15    28    25    1
    16    30    29    1
    17    30    31   ar
    18    65    64    2
    19    25    24    1
    20   115   117   ar
    21    64    63    1
    22    24    19   am
    23    15    14    1
    24    20    19    2
    25    63    66    1
    26    63    62    1
    27    66    67    1
    28    68    67    1
    29    68    69    1
    30    19    18    1
    31    70    69    1
    32    14    16    1
    33    14    13    2
    34    62    55   am
    35    56    55    2
    36    13    12    1
    37    75    76    1
    38    75    72    1
    39    12    11    1
    40    55    54    1
    41    18    21    1
    42    18    17    1
    43    22    21    1
    44    71    72    1
    45    72    73    1
    46    21    23    1
    47    17     8   am
    48    10    11    1
    49    10     7    1
    50    52    51    2
    51     8     9    2
    52     8     7    1
    53    54    53    1
    54    54    57    1
    55     7     6    1
    56    73    74    2
    57    51    50    1
    58    57    58    1
    59    50    49    1
    60    58    59    1
    61    61    60    1
    62     6     3   am
    63    60    59    1
    64    49    47   am
    65     3     4    2
    66     3     2    1
    67     5     2    1
    68   106   104    1
    69    48    47    2
    70    47    46    1
    71     2     1    1
    72   105   104    1
    73    94    93    2
    74   104   103    2
    75    36    35    2
    76    95    93   am
    77    93    92    1
    78    80    79    2
    79    84    86   ar
    80    84    82   ar
    81    46    45    1
    82    86    87   ar
    83    35    45   am
    84    35    34    1
    85    81    82    1
    86    81    78    1
    87   103   102    1
    88    92    89    1
    89    82    83   ar
    90    77    78    1
    91    79    78    1
    92    40    42   ar
    93    40    38   ar
    94    37    34    1
    95    37    38    1
    96    34    33    1
    97    87    85   ar
    98   102   101    1
    99    89    88    1
   100    89    90    1
   101    42    43   ar
   102    38    39   ar
   103    83    85   ar
   104    91    90    2
   105   101   100    1
   106    43    44    1
   107    43    41   ar
   108    39    41   ar
   109   100    97    1
   110    97    96    1
   111    97    98    1
   112    98    99    2
