@<TRIPOS>MOLECULE
tmp/2fahD00.pdb
 191 191 0 0 0
SMALL
GASTEIGER

@<TRIPOS>ATOM
      1  N         78.1390   88.4950   53.5950 N.3   271  PRO271     -0.2102
      2  CA        77.9130   88.1100   52.2000 C.3   271  PRO271      0.1504
      3  C         76.4990   88.4810   51.7450 C.2   271  PRO271      0.2576
      4  O         75.6510   88.8080   52.5650 O.2   271  PRO271     -0.2718
      5  CB        78.1190   86.5880   52.2140 C.3   271  PRO271      0.0282
      6  CG        78.9560   86.3490   53.4500 C.3   271  PRO271      0.0208
      7  CD        78.4290   87.3250   54.4390 C.3   271  PRO271      0.0893
      8  N         76.2710   88.4440   50.4390 N.am  272  SER272     -0.1938
      9  CA        74.9710   88.7520   49.8690 C.3   272  SER272      0.2055
     10  C         73.8570   87.9470   50.5400 C.2   272  SER272      0.2643
     11  O         73.9880   86.7420   50.8000 O.2   272  SER272     -0.2714
     12  CB        74.9820   88.4890   48.3680 C.3   272  SER272      0.2130
     13  OG        76.0630   89.1780   47.7530 O.3   272  SER272     -0.2179
     14  N         72.7640   88.6400   50.8340 N.am  273  ALA273     -0.1963
     15  CA        71.6080   88.0250   51.4750 C.3   273  ALA273      0.1728
     16  C         71.9150   87.4390   52.8650 C.2   273  ALA273      0.2616
     17  O         71.3030   86.4510   53.2830 O.2   273  ALA273     -0.2715
     18  CB        70.9630   86.9830   50.5580 C.3   273  ALA273      0.0334
     19  N         72.8450   88.0690   53.5850 N.am  274  CYS274     -0.1954
     20  CA        73.1580   87.6410   54.9580 C.3   274  CYS274      0.1843
     21  C         72.9450   88.7190   55.9990 C.2   274  CYS274      0.2626
     22  O         73.4700   88.6310   57.1170 O.2   274  CYS274     -0.2714
     23  CB        74.5730   87.0580   55.0510 C.3   274  CYS274      0.0997
     24  SG        74.7640   85.6160   54.0190 S.3   274  CYS274     -0.0797
     25  N         72.1750   89.7420   55.6500 N.am  275  GLY275     -0.1940
     26  CA        71.6270   90.6280   56.6650 C.3   275  GLY275      0.2014
     27  C         72.0070   92.0930   56.6340 C.2   275  GLY275      0.2639
     28  O         71.6050   92.8400   57.5360 O.2   275  GLY275     -0.2714
     29  N         72.7570   92.5360   55.6160 N.am  276  LYS276     -0.1963
     30  CA        73.2190   93.9400   55.6060 C.3   276  LYS276      0.1728
     31  C         72.0880   94.9590   55.6320 C.2   276  LYS276      0.2617
     32  O         72.1090   95.8990   56.4360 O.2   276  LYS276     -0.2715
     33  CB        74.1920   94.2260   54.4470 C.3   276  LYS276      0.0311
     34  CG        75.5260   93.4620   54.5570 C.3   276  LYS276      0.0038
     35  CD        76.5060   93.7810   53.3950 C.3   276  LYS276      0.0206
     36  CE        75.8780   93.5380   52.0440 C.3   276  LYS276      0.1093
     37  NZ        75.5790   92.0890   51.8310 N.3   276  LYS276     -0.1314
     38  N         71.0990   94.7630   54.7610 N.am  277  THR277     -0.1937
     39  CA        70.0060   95.7060   54.6070 C.3   277  THR277      0.2028
     40  C         69.1850   95.7970   55.8790 C.2   277  THR277      0.2642
     41  O         68.8260   96.8970   56.3220 O.2   277  THR277     -0.2714
     42  CB        69.0940   95.3410   53.4070 C.3   277  THR277      0.1808
     43  OG1       69.8710   95.3410   52.2030 O.3   277  THR277     -0.2208
     44  CG2       67.9280   96.3320   53.2720 C.3   277  THR277      0.0379
     45  N         68.8810   94.6410   56.4630 N.am  278  ASN278     -0.1971
     46  CA        68.1080   94.5960   57.6970 C.3   278  ASN278      0.1688
     47  C         68.8060   95.2040   58.9080 C.2   278  ASN278      0.2292
     48  O         68.1290   95.7000   59.8210 O.2   278  ASN278     -0.2864
     49  CB        67.6470   93.1670   58.0090 C.3   278  ASN278      0.1181
     50  CG        66.5410   92.7070   57.0910 C.2   278  ASN278      0.2629
     51  OD1       66.7830   92.3540   55.9310 O.2   278  ASN278     -0.2716
     52  ND2       65.3180   92.7150   57.5970 N.am  278  ASN278     -0.0877
     53  N         73.8360  100.1310   52.4950 N.3   296  ASP296     -0.1239
     54  CA        73.5710   98.7180   52.7640 C.3   296  ASP296      0.1674
     55  C         74.3930   97.7060   51.9390 C.2   296  ASP296      0.2266
     56  O         74.0970   96.5140   51.9540 O.2   296  ASP296     -0.2867
     57  CB        72.0740   98.4420   52.5880 C.3   296  ASP296      0.1410
     58  CG        71.6630   98.2730   51.1200 C.2   296  ASP296      0.3668
     59  OD1       72.2940   98.8580   50.2090 O.co2 296  ASP296     -0.2456
     60  OD2       70.6800   97.5390   50.8720 O.co2 296  ASP296     -0.2456
     61  N         67.3910   95.5560   47.4310 N.3   320  GLY320     -0.1210
     62  CA        67.3070   94.6540   48.5730 C.3   320  GLY320      0.1956
     63  C         66.5110   93.3840   48.3470 C.2   320  GLY320      0.2611
     64  O         65.5190   93.3870   47.6220 O.2   320  GLY320     -0.2717
     65  N         66.9500   92.2990   48.9790 N.am  321  VAL321     -0.1979
     66  CA        66.2040   91.0320   49.0050 C.3   321  VAL321      0.1595
     67  C         64.8180   91.2610   49.6170 C.2   321  VAL321      0.2287
     68  O         64.7050   91.8040   50.7290 O.2   321  VAL321     -0.2864
     69  CB        66.9530   89.9660   49.8420 C.3   321  VAL321      0.0276
     70  CG1       66.0680   88.7340   50.0920 C.3   321  VAL321      0.0022
     71  CG2       68.2750   89.5680   49.1830 C.3   321  VAL321      0.0022
     72  N         61.9410   88.7670   50.0350 N.3   323  PRO323     -0.2102
     73  CA        61.3960   87.7590   50.9510 C.3   323  PRO323      0.1504
     74  C         61.8950   87.9490   52.3760 C.2   323  PRO323      0.2576
     75  O         63.0840   88.1980   52.5920 O.2   323  PRO323     -0.2718
     76  CB        61.9330   86.4470   50.3820 C.3   323  PRO323      0.0282
     77  CG        62.0810   86.7260   48.9320 C.3   323  PRO323      0.0208
     78  CD        62.5470   88.1410   48.8450 C.3   323  PRO323      0.0893
     79  N         60.9740   87.8300   53.3360 N.am  324  GLY324     -0.1943
     80  CA        61.2760   88.0360   54.7480 C.3   324  GLY324      0.2014
     81  C         60.9390   89.4410   55.2210 C.2   324  GLY324      0.2639
     82  O         60.7290   89.6490   56.4190 O.2   324  GLY324     -0.2714
     83  N         60.9030   90.4080   54.2900 N.am  325  THR325     -0.1950
     84  CA        60.5830   91.8010   54.6400 C.3   325  THR325      0.1897
     85  C         59.1390   91.9060   55.1500 C.2   325  THR325      0.2313
     86  O         58.2070   91.4360   54.4730 O.2   325  THR325     -0.2863
     87  CB        60.8330   92.7800   53.4670 C.3   325  THR325      0.1794
     88  OG1       62.1790   92.6260   52.9960 O.3   325  THR325     -0.2208
     89  CG2       60.6490   94.2370   53.9080 C.3   325  THR325      0.0378
     90  N         63.7230   91.0850   44.4310 N.3   391  ARG391     -0.1245
     91  CA        64.2920   92.3460   44.9010 C.3   391  ARG391      0.1563
     92  C         63.2850   93.4690   44.8910 C.2   391  ARG391      0.2260
     93  O         62.2870   93.4020   44.1730 O.2   391  ARG391     -0.2867
     94  CB        65.4820   92.7640   44.0100 C.3   391  ARG391      0.0307
     95  CG        66.6170   91.7750   43.9590 C.3   391  ARG391      0.0489
     96  CD        67.3690   91.7580   45.2840 C.3   391  ARG391      0.2205
     97  NE        68.3680   90.6910   45.3540 N.pl3 391  ARG391     -0.0865
     98  CZ        69.5120   90.7840   46.0220 C.cat 391  ARG391      0.5346
     99  NH1       69.8280   91.9170   46.6370 N.pl3 391  ARG391      0.1354
    100  NH2       70.3490   89.7560   46.0490 N.pl3 391  ARG391      0.1354
    101  N         76.3730   83.3300   57.5050 N.3   422  ARG422     -0.1245
    102  CA        75.4760   82.2960   58.0370 C.3   422  ARG422      0.1563
    103  C         76.2640   81.0760   58.4770 C.2   422  ARG422      0.2260
    104  O         76.7920   80.3450   57.6420 O.2   422  ARG422     -0.2867
    105  CB        74.4010   81.9110   57.0100 C.3   422  ARG422      0.0307
    106  CG        73.5040   83.0750   56.6070 C.3   422  ARG422      0.0489
    107  CD        72.6440   82.7550   55.3860 C.3   422  ARG422      0.2205
    108  NE        71.7260   83.8560   55.0810 N.pl3 422  ARG422     -0.0865
    109  CZ        70.5120   83.9950   55.6100 C.cat 422  ARG422      0.5346
    110  NH1       70.0410   83.0950   56.4760 N.pl3 422  ARG422      0.1354
    111  NH2       69.7590   85.0350   55.2750 N.pl3 422  ARG422      0.1354
    112  N         74.3700   85.8620   63.3920 N.3   502  TRP502     -0.1227
    113  CA        72.9470   85.8990   63.7130 C.3   502  TRP502      0.1737
    114  C         72.2730   84.5280   63.5520 C.2   502  TRP502      0.2595
    115  O         71.1080   84.3570   63.9360 O.2   502  TRP502     -0.2718
    116  CB        72.1850   86.8730   62.8000 C.3   502  TRP502      0.0564
    117  CG        72.7360   88.2760   62.5960 C.ar  502  TRP502      0.0003
    118  CD1       72.6670   88.9990   61.4500 C.ar  502  TRP502      0.0946
    119  CD2       73.3910   89.1160   63.5570 C.ar  502  TRP502      0.0152
    120  NE1       73.2540   90.2190   61.6180 N.ar  502  TRP502     -0.2442
    121  CE2       73.7040   90.3250   62.9050 C.ar  502  TRP502      0.0810
    122  CE3       73.7540   88.9600   64.8990 C.ar  502  TRP502      0.0012
    123  CZ2       74.3530   91.3860   63.5470 C.ar  502  TRP502      0.0191
    124  CZ3       74.3980   90.0120   65.5440 C.ar  502  TRP502      0.0001
    125  CH2       74.6910   91.2140   64.8630 C.ar  502  TRP502      0.0015
    126  N         72.9880   83.5640   62.9730 N.am  503  PHE503     -0.1976
    127  CA        72.3230   82.4140   62.3570 C.3   503  PHE503      0.1639
    128  C         72.5930   81.0570   62.9850 C.2   503  PHE503      0.2290
    129  O         72.3280   80.0140   62.3670 O.2   503  PHE503     -0.2864
    130  CB        72.6230   82.3960   60.8590 C.3   503  PHE503      0.0560
    131  CG        72.2750   83.6900   60.1630 C.ar  503  PHE503     -0.0200
    132  CD1       70.9610   83.9710   59.8130 C.ar  503  PHE503     -0.0042
    133  CD2       73.2610   84.6300   59.8750 C.ar  503  PHE503     -0.0042
    134  CE1       70.6370   85.1610   59.1770 C.ar  503  PHE503     -0.0003
    135  CE2       72.9500   85.8320   59.2190 C.ar  503  PHE503     -0.0003
    136  CZ        71.6440   86.0940   58.8660 C.ar  503  PHE503     -0.0000
    137  N         66.5570   79.0210   64.9900 N.3   511  PHE511     -0.1241
    138  CA        67.4810   80.1190   65.2260 C.3   511  PHE511      0.1605
    139  C         67.4760   80.4190   66.7340 C.2   511  PHE511      0.2264
    140  O         66.4340   80.6790   67.3450 O.2   511  PHE511     -0.2867
    141  CB        67.1170   81.3840   64.4350 C.3   511  PHE511      0.0534
    142  CG        67.4100   81.3090   62.9590 C.ar  511  PHE511     -0.0203
    143  CD1       68.6690   80.9480   62.4910 C.ar  511  PHE511     -0.0042
    144  CD2       66.4260   81.6520   62.0340 C.ar  511  PHE511     -0.0042
    145  CE1       68.9260   80.8960   61.1180 C.ar  511  PHE511     -0.0003
    146  CE2       66.6780   81.6040   60.6690 C.ar  511  PHE511     -0.0003
    147  CZ        67.9320   81.2250   60.2110 C.ar  511  PHE511     -0.0000
    148  N         69.0690   82.9600   68.0850 N.3   513  TRP513     -0.1228
    149  CA        68.9940   84.4100   68.2330 C.3   513  TRP513      0.1722
    150  C         67.8630   84.9690   67.3600 C.2   513  TRP513      0.2437
    151  O         67.7960   84.6500   66.1610 O.2   513  TRP513     -0.2733
    152  CB        70.3510   84.9950   67.8130 C.3   513  TRP513      0.0563
    153  CG        70.4720   86.4730   67.9470 C.ar  513  TRP513      0.0003
    154  CD1       70.5970   87.3740   66.9380 C.ar  513  TRP513      0.0946
    155  CD2       70.4980   87.2260   69.1640 C.ar  513  TRP513      0.0152
    156  NE1       70.6950   88.6440   67.4440 N.ar  513  TRP513     -0.2442
    157  CE2       70.6380   88.5860   68.8080 C.ar  513  TRP513      0.0810
    158  CE3       70.4190   86.8850   70.5210 C.ar  513  TRP513      0.0012
    159  CZ2       70.6830   89.6100   69.7610 C.ar  513  TRP513      0.0191
    160  CZ3       70.4790   87.8850   71.4660 C.ar  513  TRP513      0.0001
    161  CH2       70.6030   89.2420   71.0860 C.ar  513  TRP513      0.0015
    162  N         66.9700   85.8030   67.9380 N.am  514  PRO514     -0.2718
    163  CA        65.8400   86.3360   67.1560 C.3   514  PRO514      0.1535
    164  C         66.2230   87.3120   66.0480 C.2   514  PRO514      0.2599
    165  O         65.4580   87.4770   65.0900 O.2   514  PRO514     -0.2715
    166  CB        64.9560   87.0150   68.2190 C.3   514  PRO514      0.0310
    167  CG        65.8810   87.3370   69.3180 C.3   514  PRO514      0.0237
    168  CD        66.9110   86.2430   69.3430 C.3   514  PRO514      0.0939
    169  N         67.3750   87.9680   66.1870 N.am  515  GLY515     -0.1941
    170  CA        67.9110   88.8150   65.1270 C.3   515  GLY515      0.2014
    171  C         67.0820   90.0560   64.8820 C.2   515  GLY515      0.2638
    172  O         66.3600   90.5390   65.7840 O.2   515  GLY515     -0.2714
    173  N         67.1990   90.5880   63.6660 N.am  516  PHE516     -0.1973
    174  CA        66.4990   91.8210   63.2660 C.3   516  PHE516      0.1639
    175  C         66.7240   92.9280   64.2890 C.2   516  PHE516      0.2290
    176  O         67.8650   93.1700   64.6340 O.2   516  PHE516     -0.2864
    177  CB        65.0320   91.5190   62.9290 C.3   516  PHE516      0.0560
    178  CG        64.8830   90.4350   61.8930 C.ar  516  PHE516     -0.0200
    179  CD1       65.1290   90.7030   60.5470 C.ar  516  PHE516     -0.0042
    180  CD2       64.5630   89.1310   62.2700 C.ar  516  PHE516     -0.0042
    181  CE1       65.0190   89.6910   59.5870 C.ar  516  PHE516     -0.0003
    182  CE2       64.4480   88.1110   61.3070 C.ar  516  PHE516     -0.0003
    183  CZ        64.6750   88.4030   59.9640 C.ar  516  PHE516     -0.0000
    184  N         69.2490   92.6870   67.0850 N.3   519  ASN519     -0.1240
    185  CA        70.6710   92.8770   66.7720 C.3   519  ASN519      0.1653
    186  C         71.2570   94.1620   67.3530 C.2   519  ASN519      0.2266
    187  O         72.4670   94.2950   67.4910 O.2   519  ASN519     -0.2867
    188  CB        70.9360   92.7850   65.2680 C.3   519  ASN519      0.1155
    189  CG        70.7300   91.3780   64.7270 C.2   519  ASN519      0.2627
    190  OD1       70.8060   90.3960   65.4770 O.2   519  ASN519     -0.2716
    191  ND2       70.4730   91.2680   63.4310 N.am  519  ASN519     -0.0877
@<TRIPOS>BOND
     1    95    94    1
     2    95    96    1
     3    94    91    1
     4    93    92    2
     5    90    91    1
     6    92    91    1
     7    96    97    1
     8    97    98    2
     9    98   100    1
    10    98    99    1
    11    61    62    1
    12    64    63    2
    13    13    12    1
    14    63    62    1
    15    63    65   am
    16    12     9    1
    17    78    77    1
    18    78    72    1
    19    77    76    1
    20    65    66    1
    21    66    67    1
    22    66    69    1
    23    71    69    1
    24    67    68    2
    25    69    70    1
    26     9     8    1
    27     9    10    1
    28    72    73    1
    29    59    58   ar
    30    76    73    1
    31     8     3   am
    32    10    11    2
    33    10    14   am
    34    18    15    1
    35    14    15    1
    36    60    58   ar
    37    73    74    1
    38    58    57    1
    39    15    16    1
    40     3     2    1
    41     3     4    2
    42    37    36    1
    43    55    56    2
    44    55    54    1
    45    36    35    1
    46     2     5    1
    47     2     1    1
    48    43    42    1
    49     5     6    1
    50    74    75    2
    51    74    79   am
    52    53    54    1
    53    57    54    1
    54    16    17    2
    55    16    19   am
    56    88    87    1
    57    44    42    1
    58    79    80    1
    59    35    34    1
    60    42    39    1
    61     6     7    1
    62    87    89    1
    63    87    84    1
    64    19    20    1
    65     1     7    1
    66    24    23    1
    67    83    84    1
    68    83    81   am
    69    33    34    1
    70    33    30    1
    71    86    85    2
    72    39    38    1
    73    39    40    1
    74    84    85    1
    75    80    81    1
    76    38    31   am
    77    20    23    1
    78    20    21    1
    79   108   107    1
    80   108   109    2
    81    81    82    2
    82   111   109    1
    83   107   106    1
    84    30    29    1
    85    30    31    1
    86   109   110    1
    87    29    27   am
    88    31    32    2
    89    25    21   am
    90    25    26    1
    91    40    41    2
    92    40    45   am
    93    51    50    2
    94    21    22    2
    95    45    46    1
    96   106   105    1
    97    27    26    1
    98    27    28    2
    99   105   102    1
   100    50    52   am
   101    50    49    1
   102   101   102    1
   103   104   103    2
   104    46    49    1
   105    46    47    1
   106   102   103    1
   107   136   134   ar
   108   136   135   ar
   109    47    48    2
   110   134   132   ar
   111   135   133   ar
   112   181   183   ar
   113   181   179   ar
   114   132   131   ar
   115   133   131   ar
   116   183   182   ar
   117   131   130    1
   118   147   146   ar
   119   147   145   ar
   120   179   178   ar
   121   146   144   ar
   122   130   127    1
   123   145   143   ar
   124   182   180   ar
   125   118   120   ar
   126   118   117   ar
   127   120   121   ar
   128   178   180   ar
   129   178   177    1
   130   144   142   ar
   131   127   126    1
   132   127   128    1
   133   129   128    2
   134   143   142   ar
   135   117   116    1
   136   117   119   ar
   137   116   113    1
   138   121   123   ar
   139   121   119   ar
   140   177   174    1
   141   142   141    1
   142   126   114   am
   143   174   173    1
   144   174   175    1
   145   112   113    1
   146   191   189   am
   147   123   125   ar
   148   114   113    1
   149   114   115    2
   150   119   122   ar
   151   173   171   am
   152   175   176    2
   153   141   138    1
   154   189   188    1
   155   189   190    2
   156   125   124   ar
   157   171   170    1
   158   171   172    2
   159   122   124   ar
   160   137   138    1
   161   165   164    2
   162   170   169    1
   163   138   139    1
   164   188   185    1
   165   164   169   am
   166   164   163    1
   167   151   150    2
   168   139   140    2
   169   185   184    1
   170   185   186    1
   171   154   156   ar
   172   154   153   ar
   173   163   162    1
   174   163   166    1
   175   186   187    2
   176   150   162   am
   177   150   149    1
   178   156   157   ar
   179   152   153    1
   180   152   149    1
   181   162   168    1
   182   153   155   ar
   183   148   149    1
   184   166   167    1
   185   157   155   ar
   186   157   159   ar
   187   155   158   ar
   188   167   168    1
   189   159   161   ar
   190   158   160   ar
   191   161   160   ar
