@<TRIPOS>MOLECULE
tmp/2fahD02.pdb
 93 91 0 0 0
SMALL
GASTEIGER

@<TRIPOS>ATOM
      1  N         91.4770   90.2220   68.9690 N.3   434  PHE434     -0.1227
      2  CA        92.4840   90.6590   69.9490 C.3   434  PHE434      0.1736
      3  C         93.3060   91.8660   69.4720 C.2   434  PHE434      0.2596
      4  O         93.9320   92.5530   70.2870 O.2   434  PHE434     -0.2718
      5  CB        93.4210   89.5010   70.3150 C.3   434  PHE434      0.0547
      6  CG        92.7540   88.3870   71.0920 C.ar  434  PHE434     -0.0202
      7  CD1       92.0200   88.6630   72.2270 C.ar  434  PHE434     -0.0042
      8  CD2       92.8860   87.0560   70.6870 C.ar  434  PHE434     -0.0042
      9  CE1       91.4180   87.6540   72.9420 C.ar  434  PHE434     -0.0003
     10  CE2       92.2830   86.0300   71.4070 C.ar  434  PHE434     -0.0003
     11  CZ        91.5570   86.3330   72.5280 C.ar  434  PHE434     -0.0000
     12  N         93.2820   92.1180   68.1620 N.am  435  GLY435     -0.1957
     13  CA        94.0290   93.2010   67.5370 C.3   435  GLY435      0.1869
     14  C         93.8500   93.1400   66.0360 C.2   435  GLY435      0.2309
     15  O         93.1360   92.2640   65.5300 O.2   435  GLY435     -0.2863
     16  N         95.8530   92.3770   63.1830 N.3   437  ARG437     -0.1231
     17  CA        96.2370   91.1800   62.3830 C.3   437  ARG437      0.1694
     18  C         95.2570   90.0360   62.6690 C.2   437  ARG437      0.2592
     19  O         94.8510   89.3060   61.7540 O.2   437  ARG437     -0.2718
     20  CB        97.6820   90.7130   62.6440 C.3   437  ARG437      0.0321
     21  CG        98.8060   91.6110   62.0830 C.3   437  ARG437      0.0489
     22  CD       100.1830   91.3490   62.7480 C.3   437  ARG437      0.2205
     23  NE       100.1140   91.4940   64.2000 N.pl3 437  ARG437     -0.0865
     24  CZ       100.7610   90.7440   65.0970 C.cat 437  ARG437      0.5346
     25  NH1      101.5930   89.7750   64.7190 N.pl3 437  ARG437      0.1354
     26  NH2      100.5700   90.9810   66.3930 N.pl3 437  ARG437      0.1354
     27  N         94.8810   89.8800   63.9360 N.am  438  HIS438     -0.1976
     28  CA        93.9000   88.8680   64.3070 C.3   438  HIS438      0.1656
     29  C         92.5520   89.1090   63.5940 C.2   438  HIS438      0.2291
     30  O         91.9600   88.1710   63.0720 O.2   438  HIS438     -0.2864
     31  CB        93.7080   88.8070   65.8230 C.3   438  HIS438      0.0771
     32  CG        92.7920   87.7090   66.2630 C.ar  438  HIS438      0.0820
     33  ND1       91.8230   87.8850   67.2220 N.ar  438  HIS438     -0.2267
     34  CD2       92.6940   86.4200   65.8590 C.ar  438  HIS438      0.1154
     35  CE1       91.1720   86.7480   67.3960 C.ar  438  HIS438      0.1986
     36  NE2       91.6790   85.8450   66.5780 N.ar  438  HIS438     -0.2212
     37  N         88.0420   86.8560   77.8170 N.3   538  PRO538     -0.2102
     38  CA        88.7760   86.2540   76.7030 C.3   538  PRO538      0.1504
     39  C         88.3710   84.8060   76.4610 C.2   538  PRO538      0.2576
     40  O         87.9990   84.0890   77.4020 O.2   538  PRO538     -0.2718
     41  CB        90.2260   86.3310   77.1710 C.3   538  PRO538      0.0282
     42  CG        90.1190   86.1590   78.6740 C.3   538  PRO538      0.0208
     43  CD        88.8120   86.8060   79.0800 C.3   538  PRO538      0.0893
     44  N         88.4420   84.3880   75.2000 N.am  539  THR539     -0.1953
     45  CA        88.2400   82.9940   74.8250 C.3   539  THR539      0.1897
     46  C         89.3210   82.6470   73.7990 C.2   539  THR539      0.2313
     47  O         90.0020   83.5640   73.3160 O.2   539  THR539     -0.2863
     48  CB        86.8520   82.7620   74.1870 C.3   539  THR539      0.1794
     49  OG1       86.8450   83.2660   72.8450 O.3   539  THR539     -0.2208
     50  CG2       85.7580   83.4450   74.9760 C.3   539  THR539      0.0378
     51  N         87.6940   88.0630   72.1380 N.3   543  TRP543     -0.1241
     52  CA        86.8610   88.5510   73.2440 C.3   543  TRP543      0.1605
     53  C         85.3890   88.2610   72.9830 C.2   543  TRP543      0.2264
     54  O         84.9120   88.4460   71.8750 O.2   543  TRP543     -0.2867
     55  CB        86.9640   90.0710   73.4120 C.3   543  TRP543      0.0550
     56  CG        88.2980   90.6100   73.7390 C.ar  543  TRP543      0.0003
     57  CD1       89.1560   91.2480   72.8800 C.ar  543  TRP543      0.0946
     58  CD2       88.9330   90.6120   75.0240 C.ar  543  TRP543      0.0152
     59  NE1       90.2870   91.6430   73.5530 N.ar  543  TRP543     -0.2442
     60  CE2       90.1810   91.2510   74.8690 C.ar  543  TRP543      0.0810
     61  CE3       88.5700   90.1330   76.2890 C.ar  543  TRP543      0.0012
     62  CZ2       91.0690   91.4180   75.9280 C.ar  543  TRP543      0.0191
     63  CZ3       89.4580   90.3050   77.3470 C.ar  543  TRP543      0.0001
     64  CH2       90.6940   90.9470   77.1540 C.ar  543  TRP543      0.0015
     65  N        100.3040   83.0550   60.6150 N.3   596  ALA596     -0.1231
     66  CA       100.7220   83.2030   62.0070 C.3   596  ALA596      0.1694
     67  C         99.5000   83.2080   62.9380 C.2   596  ALA596      0.2591
     68  O         99.5340   82.6190   64.0200 O.2   596  ALA596     -0.2718
     69  CB       101.5660   84.4670   62.1940 C.3   596  ALA596      0.0304
     70  N         98.4140   83.8510   62.4960 N.am  597  GLU597     -0.1979
     71  CA        97.1870   83.9300   63.2850 C.3   597  GLU597      0.1602
     72  C         96.4750   82.5860   63.3260 C.2   597  GLU597      0.2287
     73  O         95.9470   82.1880   64.3680 O.2   597  GLU597     -0.2864
     74  CB        96.2470   85.0140   62.7480 C.3   597  GLU597      0.0415
     75  CG        96.7130   86.4470   62.9860 C.3   597  GLU597      0.1163
     76  CD        96.9090   86.7510   64.4410 C.2   597  GLU597      0.3649
     77  OE1       96.0400   86.3760   65.2620 O.co2 597  GLU597     -0.2457
     78  OE2       97.9390   87.3570   64.7570 O.co2 597  GLU597     -0.2457
     79  N         98.3820   80.6930   65.8750 N.3   600  GLY600     -0.1225
     80  CA        97.9550   81.1870   67.1840 C.3   600  GLY600      0.1811
     81  C         96.6560   80.5420   67.6310 C.2   600  GLY600      0.2280
     82  O         96.5610   80.0720   68.7570 O.2   600  GLY600     -0.2866
     83  N         95.9800   77.9680   70.7660 N.3   604  ARG604     -0.1245
     84  CA        94.9830   78.3250   71.7870 C.3   604  ARG604      0.1563
     85  C         93.9160   77.2360   71.9030 C.2   604  ARG604      0.2260
     86  O         93.5760   76.8140   73.0160 O.2   604  ARG604     -0.2867
     87  CB        94.3380   79.7020   71.5200 C.3   604  ARG604      0.0307
     88  CG        95.3040   80.8830   71.5690 C.3   604  ARG604      0.0489
     89  CD        94.6110   82.3010   71.4610 C.3   604  ARG604      0.2205
     90  NE        93.7510   82.4990   70.2840 N.pl3 604  ARG604     -0.0865
     91  CZ        94.1660   82.9540   69.0930 C.cat 604  ARG604      0.5346
     92  NH1       95.4480   83.2500   68.8840 N.pl3 604  ARG604      0.1354
     93  NH2       93.2970   83.0910   68.0860 N.pl3 604  ARG604      0.1354
@<TRIPOS>BOND
     1    65    66    1
     2    19    18    2
     3    66    69    1
     4    66    67    1
     5    21    20    1
     6    21    22    1
     7    17    20    1
     8    17    18    1
     9    17    16    1
    10    70    67   am
    11    70    71    1
    12    18    27   am
    13    74    75    1
    14    74    71    1
    15    22    23    1
    16    67    68    2
    17    75    76    1
    18    30    29    2
    19    71    72    1
    20    72    73    2
    21    29    28    1
    22    27    28    1
    23    23    24    2
    24    28    31    1
    25    76    78   ar
    26    76    77   ar
    27    25    24    1
    28    24    26    1
    29    15    14    2
    30    31    32    1
    31    34    32   ar
    32    34    36   ar
    33    79    80    1
    34    14    13    1
    35    32    33   ar
    36    36    35   ar
    37    80    81    1
    38    33    35   ar
    39    13    12    1
    40    81    82    2
    41    93    91    1
    42    12     3   am
    43    92    91    1
    44     1     2    1
    45    91    90    2
    46     3     2    1
    47     3     4    2
    48     2     5    1
    49    90    89    1
    50     5     6    1
    51     8     6   ar
    52     8    10   ar
    53    83    84    1
    54     6     7   ar
    55    10    11   ar
    56    89    88    1
    57    87    88    1
    58    87    84    1
    59    84    85    1
    60    54    53    2
    61    85    86    2
    62    51    52    1
    63     7     9   ar
    64    11     9   ar
    65    49    48    1
    66    57    59   ar
    67    57    56   ar
    68    53    52    1
    69    52    55    1
    70    47    46    2
    71    55    56    1
    72    59    60   ar
    73    56    58   ar
    74    46    45    1
    75    48    45    1
    76    48    50    1
    77    45    44    1
    78    60    58   ar
    79    60    62   ar
    80    58    61   ar
    81    44    39   am
    82    62    64   ar
    83    61    63   ar
    84    39    38    1
    85    39    40    2
    86    38    41    1
    87    38    37    1
    88    64    63   ar
    89    41    42    1
    90    37    43    1
    91    42    43    1
