@<TRIPOS>MOLECULE
tmp/2fahD01.pdb
 113 104 0 0 0
SMALL
GASTEIGER

@<TRIPOS>ATOM
      1  N         73.2790   86.5880   40.1720 N.3    72  ARG72      -0.1245
      2  CA        74.6150   86.7000   39.5920 C.3    72  ARG72       0.1563
      3  C         75.0600   85.3150   39.1290 C.2    72  ARG72       0.2260
      4  O         74.5960   84.2970   39.6420 O.2    72  ARG72      -0.2867
      5  CB        75.6150   87.2720   40.6080 C.3    72  ARG72       0.0307
      6  CG        75.4530   88.7800   40.8900 C.3    72  ARG72       0.0489
      7  CD        76.4910   89.2910   41.8830 C.3    72  ARG72       0.2205
      8  NE        76.2300   88.7960   43.2310 N.pl3  72  ARG72      -0.0865
      9  CZ        76.8470   87.7510   43.7860 C.cat  72  ARG72       0.5346
     10  NH1       77.7920   87.1010   43.1160 N.pl3  72  ARG72       0.1354
     11  NH2       76.5290   87.3620   45.0140 N.pl3  72  ARG72       0.1354
     12  N         69.7660   90.9590   34.9440 N.3   221  TYR221     -0.1241
     13  CA        69.6060   90.9470   36.3970 C.3   221  TYR221      0.1605
     14  C         70.6600   91.7720   37.1270 C.2   221  TYR221      0.2264
     15  O         71.8590   91.6780   36.8370 O.2   221  TYR221     -0.2867
     16  CB        69.5370   89.5270   36.9600 C.3   221  TYR221      0.0534
     17  CG        68.6500   89.4350   38.1810 C.ar  221  TYR221     -0.0201
     18  CD1       67.2840   89.1600   38.0540 C.ar  221  TYR221     -0.0009
     19  CD2       69.1630   89.6520   39.4660 C.ar  221  TYR221     -0.0009
     20  CE1       66.4530   89.0940   39.1780 C.ar  221  TYR221      0.0417
     21  CE2       68.3320   89.5860   40.6010 C.ar  221  TYR221      0.0417
     22  CZ        66.9900   89.3020   40.4430 C.ar  221  TYR221      0.1957
     23  OH        66.1770   89.2320   41.5420 O.3   221  TYR221     -0.2866
     24  N         72.9450   92.4360   39.6750 N.3   223  GLY223     -0.1225
     25  CA        74.3840   92.3220   39.9000 C.3   223  GLY223      0.1811
     26  C         75.1890   92.1590   38.6310 C.2   223  GLY223      0.2280
     27  O         76.3640   92.5310   38.5740 O.2   223  GLY223     -0.2866
     28  N         77.6330   99.1760   40.3130 N.3   229  LYS229     -0.1231
     29  CA        77.4540   98.5460   41.6120 C.3   229  LYS229      0.1693
     30  C         78.5800   97.5610   41.9560 C.2   229  LYS229      0.2591
     31  O         79.6590   97.9830   42.3900 O.2   229  LYS229     -0.2718
     32  CB        76.0730   97.8780   41.6730 C.3   229  LYS229      0.0285
     33  CG        75.6540   97.3630   43.0510 C.3   229  LYS229      0.0035
     34  CD        74.1710   97.0030   43.0750 C.3   229  LYS229      0.0206
     35  CE        73.6930   96.5110   44.4350 C.3   229  LYS229      0.1093
     36  NZ        73.8570   97.4930   45.5390 N.3   229  LYS229     -0.1314
     37  N         78.3620   96.2620   41.7530 N.am  230  LYS230     -0.1980
     38  CA        79.4070   95.2830   42.0270 C.3   230  LYS230      0.1596
     39  C         80.6170   95.4410   41.1070 C.2   230  LYS230      0.2287
     40  O         81.7590   95.3890   41.5720 O.2   230  LYS230     -0.2864
     41  CB        78.8770   93.8510   41.8940 C.3   230  LYS230      0.0298
     42  CG        77.6830   93.5230   42.7510 C.3   230  LYS230      0.0038
     43  CD        77.9520   93.7570   44.2170 C.3   230  LYS230      0.0206
     44  CE        76.8140   93.1800   44.9990 C.3   230  LYS230      0.1093
     45  NZ        76.9030   93.5240   46.4160 N.3   230  LYS230     -0.1314
     46  N         82.6470   95.3640   50.4460 N.3   250  HIS250     -0.1241
     47  CA        81.2740   94.8700   50.4450 C.3   250  HIS250      0.1621
     48  C         80.6860   95.0640   51.8460 C.2   250  HIS250      0.2264
     49  O         80.4580   94.0880   52.5810 O.2   250  HIS250     -0.2867
     50  CB        81.2740   93.3830   50.0300 C.3   250  HIS250      0.0745
     51  CG        79.9120   92.8320   49.7310 C.ar  250  HIS250      0.0817
     52  ND1       79.6050   91.4990   49.8580 N.ar  250  HIS250     -0.2268
     53  CD2       78.7780   93.4380   49.3030 C.ar  250  HIS250      0.1154
     54  CE1       78.3410   91.3080   49.5270 C.ar  250  HIS250      0.1986
     55  NE2       77.8210   92.4680   49.1770 N.ar  250  HIS250     -0.2212
     56  N         76.2710   88.4440   50.4390 N.3   272  SER272     -0.1217
     57  CA        74.9710   88.7520   49.8690 C.3   272  SER272      0.1889
     58  C         73.8570   87.9470   50.5400 C.2   272  SER272      0.2288
     59  O         73.9880   86.7420   50.8000 O.2   272  SER272     -0.2866
     60  CB        74.9820   88.4890   48.3680 C.3   272  SER272      0.2089
     61  OG        76.0630   89.1780   47.7530 O.3   272  SER272     -0.2183
     62  N         72.7570   92.5360   55.6160 N.3   276  LYS276     -0.1245
     63  CA        73.2190   93.9400   55.6060 C.3   276  LYS276      0.1561
     64  C         72.0880   94.9590   55.6320 C.2   276  LYS276      0.2260
     65  O         72.1090   95.8990   56.4360 O.2   276  LYS276     -0.2867
     66  CB        74.1920   94.2260   54.4470 C.3   276  LYS276      0.0271
     67  CG        75.5260   93.4620   54.5570 C.3   276  LYS276      0.0035
     68  CD        76.5060   93.7810   53.3950 C.3   276  LYS276      0.0206
     69  CE        75.8780   93.5380   52.0440 C.3   276  LYS276      0.1093
     70  NZ        75.5790   92.0890   51.8310 N.3   276  LYS276     -0.1314
     71  N         75.4110   98.1530   51.2100 N.3   297  ASP297     -0.1239
     72  CA        76.0800   97.2330   50.3090 C.3   297  ASP297      0.1674
     73  C         77.5560   97.5290   50.0580 C.2   297  ASP297      0.2266
     74  O         78.3910   96.6400   50.1410 O.2   297  ASP297     -0.2867
     75  CB        75.3250   97.1630   48.9690 C.3   297  ASP297      0.1410
     76  CG        75.7070   95.9440   48.1520 C.2   297  ASP297      0.3668
     77  OD1       75.8430   94.8500   48.7410 O.co2 297  ASP297     -0.2456
     78  OD2       75.8740   96.0660   46.9120 O.co2 297  ASP297     -0.2456
     79  N         68.9860   97.9280   46.6420 N.3   319  PHE319     -0.1241
     80  CA        68.6110   96.8180   45.7810 C.3   319  PHE319      0.1605
     81  C         68.4990   95.6150   46.6920 C.2   319  PHE319      0.2264
     82  O         69.3900   94.7560   46.7420 O.2   319  PHE319     -0.2867
     83  CB        69.6780   96.6300   44.6930 C.3   319  PHE319      0.0534
     84  CG        69.3870   95.5160   43.7130 C.ar  319  PHE319     -0.0203
     85  CD1       68.3360   95.6280   42.7920 C.ar  319  PHE319     -0.0042
     86  CD2       70.2110   94.3870   43.6530 C.ar  319  PHE319     -0.0042
     87  CE1       68.0830   94.6050   41.8530 C.ar  319  PHE319     -0.0003
     88  CE2       69.9690   93.3540   42.7100 C.ar  319  PHE319     -0.0003
     89  CZ        68.9020   93.4680   41.8140 C.ar  319  PHE319     -0.0000
     90  N         65.5280   85.1540   45.3680 N.3   389  ASN389     -0.1240
     91  CA        66.4420   86.2820   45.1440 C.3   389  ASN389      0.1653
     92  C         65.7120   87.5290   44.6020 C.2   389  ASN389      0.2266
     93  O         66.3510   88.4570   44.0890 O.2   389  ASN389     -0.2867
     94  CB        67.6100   85.8820   44.2210 C.3   389  ASN389      0.1155
     95  CG        68.7370   86.9210   44.1960 C.2   389  ASN389      0.2627
     96  OD1       69.1210   87.4500   45.2300 O.2   389  ASN389     -0.2716
     97  ND2       69.2630   87.2130   43.0080 N.am  389  ASN389     -0.0877
     98  N         63.7230   91.0850   44.4310 N.3   391  ARG391     -0.1245
     99  CA        64.2920   92.3460   44.9010 C.3   391  ARG391      0.1563
    100  C         63.2850   93.4690   44.8910 C.2   391  ARG391      0.2260
    101  O         62.2870   93.4020   44.1730 O.2   391  ARG391     -0.2867
    102  CB        65.4820   92.7640   44.0100 C.3   391  ARG391      0.0307
    103  CG        66.6170   91.7750   43.9590 C.3   391  ARG391      0.0489
    104  CD        67.3690   91.7580   45.2840 C.3   391  ARG391      0.2205
    105  NE        68.3680   90.6910   45.3540 N.pl3 391  ARG391     -0.0865
    106  CZ        69.5120   90.7840   46.0220 C.cat 391  ARG391      0.5346
    107  NH1       69.8280   91.9170   46.6370 N.pl3 391  ARG391      0.1354
    108  NH2       70.3490   89.7560   46.0490 N.pl3 391  ARG391      0.1354
    109  N         71.6030   84.4760   46.0250 N.3   453  ALA453     -0.1245
    110  CA        72.1190   85.6720   45.3520 C.3   453  ALA453      0.1562
    111  C         73.0330   85.3640   44.1590 C.2   453  ALA453      0.2260
    112  O         73.2650   86.2440   43.3260 O.2   453  ALA453     -0.2867
    113  CB        72.8130   86.6000   46.3510 C.3   453  ALA453      0.0290
@<TRIPOS>BOND
     1    12    13    1
     2    13    16    1
     3    13    14    1
     4    15    14    2
     5    16    17    1
     6    18    17   ar
     7    18    20   ar
     8    17    19   ar
     9    27    26    2
    10    26    25    1
    11     3     2    1
    12     3     4    2
    13    20    22   ar
    14    19    21   ar
    15     2     1    1
    16     2     5    1
    17    24    25    1
    18    28    29    1
    19    22    21   ar
    20    22    23    1
    21     5     6    1
    22     6     7    1
    23    39    40    2
    24    39    38    1
    25    29    32    1
    26    29    30    1
    27    32    33    1
    28    37    30   am
    29    37    38    1
    30    89    87   ar
    31    89    88   ar
    32    87    85   ar
    33     7     8    1
    34    41    38    1
    35    41    42    1
    36    30    31    2
    37    88    86   ar
    38    42    43    1
    39    85    84   ar
    40    97    95   am
    41    33    34    1
    42    34    35    1
    43    10     9    1
    44     8     9    2
    45   112   111    2
    46    86    84   ar
    47    84    83    1
    48     9    11    1
    49   103   102    1
    50   103   104    1
    51   102    99    1
    52    93    92    2
    53   111   110    1
    54   101   100    2
    55    95    94    1
    56    95    96    2
    57    43    44    1
    58    94    91    1
    59    98    99    1
    60    35    36    1
    61    92    91    1
    62    83    80    1
    63   100    99    1
    64    44    45    1
    65    91    90    1
    66   104   105    1
    67   110   109    1
    68   110   113    1
    69   105   106    2
    70    80    79    1
    71    80    81    1
    72   106   108    1
    73   106   107    1
    74    81    82    2
    75    78    76   ar
    76    61    60    1
    77    76    77   ar
    78    76    75    1
    79    60    57    1
    80    75    72    1
    81    55    53   ar
    82    55    54   ar
    83    53    51   ar
    84    54    52   ar
    85    51    52   ar
    86    51    50    1
    87    57    56    1
    88    57    58    1
    89    50    47    1
    90    73    74    2
    91    73    72    1
    92    72    71    1
    93    47    46    1
    94    47    48    1
    95    58    59    2
    96    70    69    1
    97    48    49    2
    98    69    68    1
    99    68    67    1
   100    66    67    1
   101    66    63    1
   102    63    62    1
   103    63    64    1
   104    64    65    2
