@<TRIPOS>MOLECULE
tmp/2fakY00.pdb
 107 99 0 0 0
SMALL
GASTEIGER

@<TRIPOS>ATOM
      1  N         56.6670 -151.8350    7.7500 N.3     1  THR1       -0.1218
      2  CA        57.0380 -152.9450    6.8300 C.3     1  THR1        0.1862
      3  C         56.4850 -152.7940    5.4270 C.2     1  THR1        0.2287
      4  O         55.3840 -152.3020    5.2320 O.2     1  THR1       -0.2866
      5  CB        56.5300 -154.2760    7.3760 C.3     1  THR1        0.1770
      6  OG1       57.2380 -154.5720    8.5740 O.3     1  THR1       -0.2211
      7  CG2       56.7810 -155.4110    6.3840 C.3     1  THR1        0.0375
      8  N         63.4080 -153.7420    7.9290 N.3    19  ARG19      -0.1231
      9  CA        63.3760 -153.0650    9.2180 C.3    19  ARG19       0.1694
     10  C         62.4340 -153.6970   10.2580 C.2    19  ARG19       0.2592
     11  O         61.3190 -154.1340    9.9460 O.2    19  ARG19      -0.2718
     12  CB        63.0130 -151.5920    9.0250 C.3    19  ARG19       0.0321
     13  CG        62.7580 -150.8730   10.3330 C.3    19  ARG19       0.0489
     14  CD        62.6790 -149.3960   10.1280 C.3    19  ARG19       0.2205
     15  NE        63.9220 -148.9020    9.5610 N.pl3  19  ARG19      -0.0865
     16  CZ        64.1150 -147.6430    9.1880 C.cat  19  ARG19       0.5346
     17  NH1       63.1310 -146.7650    9.3310 N.pl3  19  ARG19       0.1354
     18  NH2       65.2870 -147.2660    8.6760 N.pl3  19  ARG19       0.1354
     19  N         62.8990 -153.7450   11.5000 N.am   20  ALA20      -0.1966
     20  CA        62.1020 -154.2880   12.5850 C.3    20  ALA20       0.1728
     21  C         61.9310 -153.1820   13.6200 C.2    20  ALA20       0.2616
     22  O         62.9040 -152.5740   14.0460 O.2    20  ALA20      -0.2715
     23  CB        62.8050 -155.4910   13.2050 C.3    20  ALA20       0.0334
     24  N         60.6950 -152.9000   14.0100 N.am   21  THR21      -0.1951
     25  CA        60.4620 -151.8720   15.0190 C.3    21  THR21       0.1897
     26  C         59.5080 -152.3480   16.1020 C.2    21  THR21       0.2313
     27  O         58.6950 -153.2370   15.8900 O.2    21  THR21      -0.2863
     28  CB        59.8570 -150.5720   14.4180 C.3    21  THR21       0.1794
     29  OG1       58.5310 -150.8340   13.9290 O.3    21  THR21      -0.2208
     30  CG2       60.7350 -150.0380   13.2900 C.3    21  THR21       0.0378
     31  N         57.4210 -150.0210   18.4780 N.3    23  GLY23      -0.1225
     32  CA        57.1350 -148.6430   18.8230 C.3    23  GLY23       0.1811
     33  C         57.9740 -147.8320   17.8690 C.2    23  GLY23       0.2280
     34  O         57.9610 -148.1010   16.6710 O.2    23  GLY23      -0.2866
     35  N         66.5380 -157.4700    9.0910 N.3    31  VAL31      -0.1245
     36  CA        65.7080 -158.6350    9.3660 C.3    31  VAL31       0.1561
     37  C         65.2570 -159.2920    8.0700 C.2    31  VAL31       0.2260
     38  O         65.0460 -158.6070    7.0790 O.2    31  VAL31      -0.2867
     39  CB        64.4520 -158.2280   10.1940 C.3    31  VAL31       0.0252
     40  CG1       63.5260 -159.4080   10.3800 C.3    31  VAL31       0.0019
     41  CG2       64.8780 -157.7150   11.5390 C.3    31  VAL31       0.0019
     42  N         62.5480 -160.8930    5.7360 N.3    33  LYS33      -0.1245
     43  CA        61.1000 -160.8260    5.6340 C.3    33  LYS33       0.1561
     44  C         60.6130 -161.7540    4.5370 C.2    33  LYS33       0.2260
     45  O         59.4800 -161.6670    4.0700 O.2    33  LYS33      -0.2867
     46  CB        60.6420 -159.3910    5.3930 C.3    33  LYS33       0.0271
     47  CG        60.7670 -158.5470    6.6340 C.3    33  LYS33       0.0035
     48  CD        60.3000 -157.1210    6.4200 C.3    33  LYS33       0.0206
     49  CE        60.5020 -156.3280    7.6860 C.3    33  LYS33       0.1093
     50  NZ        60.3040 -154.8910    7.4570 N.3    33  LYS33      -0.1314
     51  N         56.9270 -161.9850    4.8010 N.3    45  MET45      -0.1230
     52  CA        56.4760 -161.8120    6.1760 C.3    45  MET45       0.1702
     53  C         56.1060 -160.3830    6.5550 C.2    45  MET45       0.2592
     54  O         56.9480 -159.4830    6.5360 O.2    45  MET45      -0.2718
     55  CB        57.5480 -162.3100    7.1390 C.3    45  MET45       0.0401
     56  CG        58.0040 -163.7210    6.8670 C.3    45  MET45       0.0596
     57  SD        58.9840 -164.4120    8.2170 S.3    45  MET45      -0.1393
     58  CE        60.4670 -163.4970    8.0960 C.3    45  MET45       0.0692
     59  N         54.8380 -160.1770    6.8940 N.am   46  ALA46      -0.1966
     60  CA        54.3720 -158.8690    7.3380 C.3    46  ALA46       0.1728
     61  C         53.5690 -159.1160    8.6040 C.2    46  ALA46       0.2617
     62  O         52.9540 -160.1750    8.7510 O.2    46  ALA46      -0.2715
     63  CB        53.5130 -158.2270    6.2910 C.3    46  ALA46       0.0334
     64  N         53.5940 -158.1550    9.5230 N.am   47  GLY47      -0.1940
     65  CA        52.8620 -158.3030   10.7750 C.3    47  GLY47       0.2014
     66  C         53.7280 -158.8470   11.8940 C.2    47  GLY47       0.2639
     67  O         54.7940 -158.3010   12.1920 O.2    47  GLY47      -0.2714
     68  N         53.2800 -159.9350   12.5080 N.am   48  GLY48      -0.1939
     69  CA        54.0410 -160.5270   13.5920 C.3    48  GLY48       0.2014
     70  C         55.1620 -161.4020   13.0800 C.2    48  GLY48       0.2638
     71  O         54.9070 -162.3790   12.3850 O.2    48  GLY48      -0.2714
     72  N         56.4010 -161.0590   13.4190 N.am   49  ALA49      -0.1977
     73  CA        57.5620 -161.8410   12.9870 C.3    49  ALA49       0.1597
     74  C         57.4610 -163.2990   13.4310 C.2    49  ALA49       0.2287
     75  O         57.6020 -164.2170   12.6260 O.2    49  ALA49      -0.2864
     76  CB        58.8290 -161.2300   13.5370 C.3    49  ALA49       0.0319
     77  N         57.2390 -166.2530   10.6140 N.3    53  GLN53      -0.1245
     78  CA        58.4130 -167.1250   10.6310 C.3    53  GLN53       0.1566
     79  C         58.0800 -168.5750   11.0060 C.2    53  GLN53       0.2260
     80  O         58.3900 -169.5160   10.2770 O.2    53  GLN53      -0.2867
     81  CB        59.4040 -166.5700   11.6360 C.3    53  GLN53       0.0367
     82  CG        60.8400 -166.5840   11.2180 C.3    53  GLN53       0.0905
     83  CD        61.7210 -166.0330   12.3160 C.2    53  GLN53       0.2608
     84  OE1       61.9420 -166.6900   13.3430 O.2    53  GLN53      -0.2717
     85  NE2       62.2100 -164.8110   12.1240 N.am   53  GLN53      -0.0878
     86  N         51.8800 -154.3900    4.2390 N.3   130  GLY130     -0.1210
     87  CA        52.6950 -153.6530    5.1910 C.3   130  GLY130      0.1956
     88  C         52.3400 -152.1820    5.3260 C.2   130  GLY130      0.2612
     89  O         51.6270 -151.6140    4.4950 O.2   130  GLY130     -0.2717
     90  N         52.8460 -151.5550    6.3790 N.am  131  SER131     -0.1952
     91  CA        52.5790 -150.1480    6.6160 C.3   131  SER131      0.1924
     92  C         53.0370 -149.2790    5.4560 C.2   131  SER131      0.2314
     93  O         52.6310 -148.1260    5.3440 O.2   131  SER131     -0.2863
     94  CB        53.2700 -149.6990    7.8970 C.3   131  SER131      0.2116
     95  OG        54.6570 -149.9740    7.8490 O.3   131  SER131     -0.2180
     96  N         58.2070 -146.7800    9.3060 N.3   170  TYR170     -0.1241
     97  CA        58.3720 -148.1660    9.7200 C.3   170  TYR170      0.1605
     98  C         58.9470 -149.1270    8.6830 C.2   170  TYR170      0.2264
     99  O         58.9570 -150.3360    8.8990 O.2   170  TYR170     -0.2867
    100  CB        57.0360 -148.6760   10.2660 C.3   170  TYR170      0.0534
    101  CG        56.6110 -147.8530   11.4460 C.ar  170  TYR170     -0.0201
    102  CD1       57.3250 -147.9040   12.6380 C.ar  170  TYR170     -0.0009
    103  CD2       55.5870 -146.9260   11.3360 C.ar  170  TYR170     -0.0009
    104  CE1       57.0390 -147.0490   13.6870 C.ar  170  TYR170      0.0417
    105  CE2       55.2910 -146.0610   12.3810 C.ar  170  TYR170      0.0417
    106  CZ        56.0220 -146.1260   13.5550 C.ar  170  TYR170      0.1957
    107  OH        55.7370 -145.2620   14.6000 O.3   170  TYR170     -0.2866
@<TRIPOS>BOND
     1    45    44    2
     2    86    87    1
     3    89    88    2
     4    44    43    1
     5    51    52    1
     6    87    88    1
     7     4     3    2
     8    88    90   am
     9    93    92    2
    10    46    43    1
    11    46    47    1
    12     3     2    1
    13    92    91    1
    14    43    42    1
    15    52    53    1
    16    52    55    1
    17    63    60    1
    18    90    91    1
    19     7     5    1
    20    48    47    1
    21    48    49    1
    22    54    53    2
    23    53    59   am
    24    91    94    1
    25     2     5    1
    26     2     1    1
    27    56    55    1
    28    56    57    1
    29    59    60    1
    30    38    37    2
    31    60    61    1
    32     5     6    1
    33    50    49    1
    34    95    94    1
    35     8     9    1
    36    37    36    1
    37    58    57    1
    38    61    62    2
    39    61    64   am
    40    18    16    1
    41    98    99    2
    42    98    97    1
    43    12     9    1
    44    12    13    1
    45    35    36    1
    46    16    17    1
    47    16    15    2
    48     9    10    1
    49    96    97    1
    50    36    39    1
    51    64    65    1
    52    15    14    1
    53    97   100    1
    54    11    10    2
    55    14    13    1
    56    39    40    1
    57    39    41    1
    58    10    19   am
    59   100   101    1
    60    80    79    2
    61    77    78    1
    62    78    79    1
    63    78    81    1
    64    65    66    1
    65    82    81    1
    66    82    83    1
    67   103   101   ar
    68   103   105   ar
    69   101   102   ar
    70    19    20    1
    71    66    67    2
    72    66    68   am
    73    85    83   am
    74    83    84    2
    75   105   106   ar
    76    71    70    2
    77    68    69    1
    78    20    23    1
    79    20    21    1
    80    75    74    2
    81   102   104   ar
    82    73    72    1
    83    73    74    1
    84    73    76    1
    85    70    72   am
    86    70    69    1
    87    30    28    1
    88   106   104   ar
    89   106   107    1
    90    21    24   am
    91    21    22    2
    92    29    28    1
    93    24    25    1
    94    28    25    1
    95    25    26    1
    96    27    26    2
    97    34    33    2
    98    33    32    1
    99    31    32    1
