@<TRIPOS>MOLECULE
tmp/2fakN00.pdb
 116 107 0 0 0
SMALL
GASTEIGER

@<TRIPOS>ATOM
      1  N         43.9550 -143.8320   63.0080 N.3     1  THR1       -0.1218
      2  CA        43.7560 -142.6840   63.9380 C.3     1  THR1        0.1862
      3  C         42.7440 -142.9700   65.0250 C.2     1  THR1        0.2287
      4  O         41.6740 -143.5270   64.7700 O.2     1  THR1       -0.2866
      5  CB        43.2660 -141.4520   63.1870 C.3     1  THR1        0.1770
      6  OG1       44.3330 -140.9560   62.3840 O.3     1  THR1       -0.2211
      7  CG2       42.7990 -140.3540   64.1550 C.3     1  THR1        0.0375
      8  N         50.1020 -141.2410   65.3500 N.3    19  ARG19      -0.1231
      9  CA        50.4820 -141.8100   64.0640 C.3    19  ARG19       0.1694
     10  C         49.8060 -141.2540   62.8090 C.2    19  ARG19       0.2593
     11  O         48.5870 -141.0660   62.7770 O.2    19  ARG19      -0.2718
     12  CB        50.2680 -143.3230   64.1250 C.3    19  ARG19       0.0321
     13  CG        50.3580 -144.0570   62.7950 C.3    19  ARG19       0.0489
     14  CD        50.2090 -145.5550   63.0010 C.3    19  ARG19       0.2205
     15  NE        51.2980 -146.0790   63.8140 N.pl3  19  ARG19      -0.0865
     16  CZ        51.4680 -147.3610   64.1150 C.cat  19  ARG19       0.5346
     17  NH1       50.6110 -148.2710   63.6750 N.pl3  19  ARG19       0.1354
     18  NH2       52.5110 -147.7400   64.8390 N.pl3  19  ARG19       0.1354
     19  N         50.6070 -140.9510   61.7910 N.am   20  THR20      -0.1939
     20  CA        50.0370 -140.5270   60.5210 C.3    20  THR20       0.2028
     21  C         50.6540 -141.5060   59.5290 C.2    20  THR20       0.2642
     22  O         51.8460 -141.8130   59.6010 O.2    20  THR20      -0.2714
     23  CB        50.3870 -139.0670   60.0940 C.3    20  THR20       0.1808
     24  OG1       51.6600 -139.0460   59.4550 O.3    20  THR20      -0.2208
     25  CG2       50.4170 -138.1520   61.2710 C.3    20  THR20       0.0379
     26  N         49.8390 -142.0150   58.6170 N.am   21  THR21      -0.1950
     27  CA        50.3280 -142.9740   57.6480 C.3    21  THR21       0.1897
     28  C         49.9810 -142.6340   56.2140 C.2    21  THR21       0.2313
     29  O         49.0170 -141.9180   55.9360 O.2    21  THR21      -0.2863
     30  CB        49.7340 -144.3490   57.9040 C.3    21  THR21       0.1794
     31  OG1       48.3080 -144.2250   57.9170 O.3    21  THR21      -0.2208
     32  CG2       50.2070 -144.9190   59.2260 C.3    21  THR21       0.0378
     33  N         49.6280 -145.2170   53.4490 N.3    23  GLY23      -0.1225
     34  CA        49.6870 -146.6250   53.1250 C.3    23  GLY23       0.1811
     35  C         50.0840 -147.3430   54.3980 C.2    23  GLY23       0.2280
     36  O         49.5970 -147.0020   55.4770 O.2    23  GLY23      -0.2866
     37  N         53.1620 -137.5530   65.8600 N.3    31  THR31      -0.1218
     38  CA        52.2340 -136.5060   65.4450 C.3    31  THR31       0.1862
     39  C         51.4130 -135.9320   66.5980 C.2    31  THR31       0.2287
     40  O         51.0740 -136.6410   67.5500 O.2    31  THR31      -0.2866
     41  CB        51.2400 -137.0680   64.4160 C.3    31  THR31       0.1770
     42  OG1       51.9710 -137.7280   63.3810 O.3    31  THR31      -0.2211
     43  CG2       50.3760 -135.9510   63.8120 C.3    31  THR31       0.0375
     44  N         47.9240 -134.5410   67.1730 N.3    33  LYS33      -0.1245
     45  CA        46.5900 -134.3990   66.6110 C.3    33  LYS33       0.1561
     46  C         45.6800 -133.5520   67.4760 C.2    33  LYS33       0.2260
     47  O         44.5000 -133.3670   67.1610 O.2    33  LYS33      -0.2867
     48  CB        45.9720 -135.7850   66.4030 C.3    33  LYS33       0.0271
     49  CG        46.8450 -136.6960   65.5670 C.3    33  LYS33       0.0035
     50  CD        46.2250 -138.0590   65.3880 C.3    33  LYS33       0.0206
     51  CE        47.1230 -138.9420   64.5420 C.3    33  LYS33       0.1093
     52  NZ        46.5730 -140.3160   64.4070 N.3    33  LYS33      -0.1314
     53  N         41.8530 -133.9270   65.5850 N.3    45  ARG45      -0.1231
     54  CA        41.8070 -134.0550   64.1400 C.3    45  ARG45       0.1694
     55  C         41.9510 -135.4910   63.6170 C.2    45  ARG45       0.2593
     56  O         42.8260 -136.2300   64.0590 O.2    45  ARG45      -0.2718
     57  CB        42.8940 -133.1780   63.5320 C.3    45  ARG45       0.0321
     58  CG        42.6960 -131.7010   63.7970 C.3    45  ARG45       0.0489
     59  CD        43.7870 -130.8760   63.1470 C.3    45  ARG45       0.2205
     60  NE        45.0930 -131.2200   63.6830 N.pl3  45  ARG45      -0.0865
     61  CZ        46.0400 -131.8690   63.0130 C.cat  45  ARG45       0.5346
     62  NH1       45.8370 -132.2530   61.7620 N.pl3  45  ARG45       0.1354
     63  NH2       47.1970 -132.1380   63.5970 N.pl3  45  ARG45       0.1354
     64  N         41.0710 -135.8730   62.6840 N.am   46  SER46      -0.1938
     65  CA        41.0940 -137.1920   62.0340 C.3    46  SER46       0.2055
     66  C         40.6820 -137.0270   60.5620 C.2    46  SER46       0.2644
     67  O         39.9760 -136.0710   60.1950 O.2    46  SER46      -0.2714
     68  CB        40.1510 -138.1880   62.7240 C.3    46  SER46       0.2130
     69  OG        38.7900 -137.8870   62.4610 O.3    46  SER46      -0.2179
     70  N         41.1190 -137.9720   59.7310 N.am   47  GLY47      -0.1939
     71  CA        40.8360 -137.9050   58.3120 C.3    47  GLY47       0.2014
     72  C         42.0690 -137.3920   57.5810 C.2    47  GLY47       0.2640
     73  O         43.1710 -137.8980   57.7640 O.2    47  GLY47      -0.2714
     74  N         41.8930 -136.3760   56.7530 N.am   48  SER48      -0.1935
     75  CA        43.0040 -135.8150   56.0090 C.3    48  SER48       0.2055
     76  C         43.8150 -134.8500   56.8750 C.2    48  SER48       0.2642
     77  O         43.2740 -133.8940   57.4410 O.2    48  SER48      -0.2714
     78  CB        42.4770 -135.0690   54.7820 C.3    48  SER48       0.2130
     79  OG        43.4350 -134.1380   54.2920 O.3    48  SER48      -0.2179
     80  N         45.1160 -135.0950   56.9800 N.am   49  ALA49      -0.1977
     81  CA        45.9790 -134.2140   57.7510 C.3    49  ALA49       0.1597
     82  C         45.9620 -132.8420   57.0810 C.2    49  ALA49       0.2287
     83  O         45.7960 -131.8260   57.7450 O.2    49  ALA49      -0.2864
     84  CB        47.3960 -134.7650   57.7940 C.3    49  ALA49       0.0319
     85  N         42.3520 -131.1840   57.6890 N.3    52  THR52      -0.1203
     86  CA        42.1050 -130.7690   59.0690 C.3    52  THR52       0.1994
     87  C         43.0270 -129.6270   59.5060 C.2    52  THR52       0.2617
     88  O         42.6080 -128.7530   60.2640 O.2    52  THR52      -0.2717
     89  CB        42.2510 -131.9420   60.0550 C.3    52  THR52       0.1784
     90  OG1       43.6160 -132.3900   60.0770 O.3    52  THR52      -0.2211
     91  CG2       41.3220 -133.0870   59.6500 C.3    52  THR52       0.0376
     92  N         44.2760 -129.6350   59.0340 N.am   53  GLN53      -0.1979
     93  CA        45.2160 -128.5600   59.3600 C.3    53  GLN53       0.1601
     94  C         44.6680 -127.2500   58.7940 C.2    53  GLN53       0.2287
     95  O         44.5380 -126.2610   59.5080 O.2    53  GLN53      -0.2864
     96  CB        46.5970 -128.8340   58.7580 C.3    53  GLN53       0.0394
     97  CG        47.5020 -129.6850   59.6290 C.3    53  GLN53       0.0908
     98  CD        48.8750 -129.9650   59.0000 C.2    53  GLN53       0.2608
     99  OE1       49.4750 -129.1040   58.3550 O.2    53  GLN53      -0.2717
    100  NE2       49.3800 -131.1690   59.2160 N.am   53  GLN53      -0.0878
    101  N         37.8020 -141.7180   64.5340 N.3   128  GLY128     -0.1210
    102  CA        39.0000 -142.2550   63.9190 C.3   128  GLY128      0.1956
    103  C         38.8000 -143.7320   63.6510 C.2   128  GLY128      0.2612
    104  O         37.8800 -144.3430   64.1920 O.2   128  GLY128     -0.2717
    105  N         39.6530 -144.3140   62.8140 N.am  129  SER129     -0.1952
    106  CA        39.5250 -145.7270   62.5020 C.3   129  SER129      0.1924
    107  C         39.5790 -146.6010   63.7600 C.2   129  SER129      0.2314
    108  O         38.7770 -147.5220   63.9160 O.2   129  SER129     -0.2863
    109  CB        40.6230 -146.1410   61.5200 C.3   129  SER129      0.2116
    110  OG        41.8920 -145.6950   61.9640 O.3   129  SER129     -0.2180
    111  N         46.1990 -148.4550   61.9640 N.3   168  SER168     -0.1217
    112  CA        46.3280 -147.0480   61.6090 C.3   168  SER168      0.1889
    113  C         46.6010 -146.1650   62.8120 C.2   168  SER168      0.2288
    114  O         46.8290 -144.9750   62.6620 O.2   168  SER168     -0.2866
    115  CB        45.0690 -146.5530   60.8990 C.3   168  SER168      0.2089
    116  OG        44.8830 -147.2480   59.6800 O.3   168  SER168     -0.2183
@<TRIPOS>BOND
     1    34    33    1
     2    34    35    1
     3    79    78    1
     4    35    36    2
     5    78    75    1
     6    29    28    2
     7    75    74    1
     8    75    76    1
     9    28    27    1
    10    74    72   am
    11    76    80   am
    12    76    77    2
    13    80    81    1
    14    82    83    2
    15    82    81    1
    16    72    73    2
    17    72    71    1
    18    27    30    1
    19    27    26    1
    20    85    86    1
    21    81    84    1
    22    30    31    1
    23    30    32    1
    24    71    70    1
    25    99    98    2
    26    26    21   am
    27    96    93    1
    28    96    97    1
    29    94    93    1
    30    94    95    2
    31    98   100   am
    32    98    97    1
    33    92    93    1
    34    92    87   am
    35    86    87    1
    36    86    89    1
    37    24    23    1
    38    87    88    2
    39    21    22    2
    40    21    20    1
    41    91    89    1
    42   116   115    1
    43    70    66   am
    44    89    90    1
    45    23    20    1
    46    23    25    1
    47    67    66    2
    48    20    19    1
    49    66    65    1
    50   115   112    1
    51   109   110    1
    52   109   106    1
    53   112   111    1
    54   112   113    1
    55    62    61    1
    56    19    10   am
    57    65    64    1
    58    65    68    1
    59     6     5    1
    60    69    68    1
    61   106   105    1
    62   106   107    1
    63   114   113    2
    64    64    55   am
    65    11    10    2
    66    13    14    1
    67    13    12    1
    68    10     9    1
    69   105   103   am
    70    14    15    1
    71     1     2    1
    72    61    63    1
    73    61    60    2
    74    59    60    1
    75    59    58    1
    76     5     2    1
    77     5     7    1
    78    42    41    1
    79    57    58    1
    80    57    54    1
    81    55    56    2
    82    55    54    1
    83   103   102    1
    84   103   104    2
    85    17    16    1
    86   107   108    2
    87    43    41    1
    88    15    16    2
    89   102   101    1
    90     2     3    1
    91     9    12    1
    92     9     8    1
    93    16    18    1
    94    54    53    1
    95    52    51    1
    96    41    38    1
    97    51    50    1
    98     4     3    2
    99    50    49    1
   100    38    37    1
   101    38    39    1
   102    49    48    1
   103    48    45    1
   104    39    40    2
   105    45    44    1
   106    45    46    1
   107    47    46    2
