@<TRIPOS>MOLECULE
tmp/2faqB00.pdb
 143 132 0 0 0
SMALL
GASTEIGER

@<TRIPOS>ATOM
      1  N         29.3980   24.5560   25.4610 N.3    50  VAL50      -0.1245
      2  CA        28.2180   24.4230   24.6160 C.3    50  VAL50       0.1561
      3  C         28.5050   23.1180   23.8790 C.2    50  VAL50       0.2260
      4  O         29.3560   23.0680   22.9840 O.2    50  VAL50      -0.2867
      5  CB        28.0670   25.5910   23.6070 C.3    50  VAL50       0.0252
      6  CG1       26.9290   25.2820   22.6410 C.3    50  VAL50       0.0019
      7  CG2       27.7720   26.8900   24.3540 C.3    50  VAL50       0.0019
      8  N         21.6540   21.6650   21.6870 N.3    60  LEU60      -0.1245
      9  CA        22.8620   22.0410   22.4010 C.3    60  LEU60       0.1561
     10  C         22.6550   22.0420   23.9030 C.2    60  LEU60       0.2260
     11  O         21.6140   22.4590   24.4010 O.2    60  LEU60      -0.2867
     12  CB        23.3350   23.4290   21.9550 C.3    60  LEU60       0.0270
     13  CG        23.5490   23.6160   20.4490 C.3    60  LEU60       0.0019
     14  CD1       24.0320   25.0370   20.1690 C.3    60  LEU60       0.0001
     15  CD2       24.5580   22.6010   19.9440 C.3    60  LEU60       0.0001
     16  N         24.1330   23.4990   27.3530 N.3    62  PHE62      -0.1241
     17  CA        24.9670   24.5640   27.9260 C.3    62  PHE62       0.1605
     18  C         25.3300   24.0980   29.3280 C.2    62  PHE62       0.2264
     19  O         24.4990   24.1370   30.2360 O.2    62  PHE62      -0.2867
     20  CB        24.1890   25.8740   28.0260 C.3    62  PHE62       0.0534
     21  CG        25.0470   27.0670   28.3730 C.ar   62  PHE62      -0.0203
     22  CD1       25.9080   27.6140   27.4290 C.ar   62  PHE62      -0.0042
     23  CD2       24.9930   27.6430   29.6400 C.ar   62  PHE62      -0.0042
     24  CE1       26.7030   28.7230   27.7400 C.ar   62  PHE62      -0.0003
     25  CE2       25.7870   28.7540   29.9620 C.ar   62  PHE62      -0.0003
     26  CZ        26.6400   29.2920   29.0090 C.ar   62  PHE62      -0.0000
     27  N         27.7200   24.2450   32.8390 N.3    64  LYS64      -0.1245
     28  CA        28.5670   25.0630   33.7140 C.3    64  LYS64       0.1561
     29  C         29.3280   24.2180   34.7430 C.2    64  LYS64       0.2260
     30  O         30.4560   24.5470   35.1110 O.2    64  LYS64      -0.2867
     31  CB        27.7290   26.0820   34.4970 C.3    64  LYS64       0.0271
     32  CG        26.9010   27.0380   33.6760 C.3    64  LYS64       0.0035
     33  CD        26.0540   27.8810   34.6060 C.3    64  LYS64       0.0206
     34  CE        25.0090   28.6690   33.8490 C.3    64  LYS64       0.1093
     35  NZ        24.1350   29.4190   34.7970 N.3    64  LYS64      -0.1314
     36  N         32.5910   29.4360   26.3900 N.3   109  HIS109     -0.1241
     37  CA        32.2010   30.7570   26.8990 C.3   109  HIS109      0.1621
     38  C         32.8410   30.9810   28.2600 C.2   109  HIS109      0.2264
     39  O         32.7580   30.1200   29.1300 O.2   109  HIS109     -0.2867
     40  CB        30.6810   30.8430   27.0490 C.3   109  HIS109      0.0745
     41  CG        29.9430   30.6660   25.7640 C.ar  109  HIS109      0.0817
     42  ND1       29.0370   31.5900   25.2980 N.ar  109  HIS109     -0.2268
     43  CD2       29.9990   29.6860   24.8300 C.ar  109  HIS109      0.1154
     44  CE1       28.5690   31.1920   24.1280 C.ar  109  HIS109      0.1986
     45  NE2       29.1370   30.0410   23.8220 N.ar  109  HIS109     -0.2212
     46  N         27.2150   43.5400   24.3970 N.3   127  ASP127     -0.1239
     47  CA        26.8560   42.6940   23.2620 C.3   127  ASP127      0.1674
     48  C         25.8180   43.4130   22.4050 C.2   127  ASP127      0.2266
     49  O         24.6930   43.6330   22.8520 O.2   127  ASP127     -0.2867
     50  CB        26.2650   41.3760   23.7650 C.3   127  ASP127      0.1410
     51  CG        26.0060   40.3850   22.6450 C.2   127  ASP127      0.3668
     52  OD1       25.7440   40.8140   21.5050 O.co2 127  ASP127     -0.2456
     53  OD2       26.0560   39.1680   22.9140 O.co2 127  ASP127     -0.2456
     54  N         23.1210   43.4330   19.8000 N.3   129  ASP129     -0.1239
     55  CA        22.1640   42.5550   19.1250 C.3   129  ASP129      0.1674
     56  C         21.2380   43.3580   18.2280 C.2   129  ASP129      0.2266
     57  O         20.3880   44.1040   18.7050 O.2   129  ASP129     -0.2867
     58  CB        21.3160   41.7970   20.1440 C.3   129  ASP129      0.1410
     59  CG        22.0710   40.6770   20.7990 C.2   129  ASP129      0.3668
     60  OD1       22.5480   39.7890   20.0660 O.co2 129  ASP129     -0.2456
     61  OD2       22.1860   40.6810   22.0400 O.co2 129  ASP129     -0.2456
     62  N         31.0850   38.3250   16.8780 N.3   162  SER162     -0.1217
     63  CA        30.5290   37.2810   17.7430 C.3   162  SER162      0.1889
     64  C         30.5140   35.9480   17.0130 C.2   162  SER162      0.2288
     65  O         30.4070   34.8790   17.6270 O.2   162  SER162     -0.2866
     66  CB        29.0910   37.6300   18.1360 C.3   162  SER162      0.2089
     67  OG        28.2230   37.5360   17.0190 O.3   162  SER162     -0.2183
     68  N         25.5930   37.4030   14.6310 N.3   165  LYS165     -0.1231
     69  CA        24.9650   38.5200   13.9380 C.3   165  LYS165      0.1693
     70  C         25.4100   39.8900   14.4410 C.2   165  LYS165      0.2592
     71  O         25.0500   40.9050   13.8500 O.2   165  LYS165     -0.2718
     72  CB        23.4460   38.4030   14.0790 C.3   165  LYS165      0.0285
     73  CG        22.9350   37.0180   13.7440 C.3   165  LYS165      0.0035
     74  CD        21.5000   36.8130   14.1830 C.3   165  LYS165      0.0206
     75  CE        21.1320   35.3350   14.0940 C.3   165  LYS165      0.1093
     76  NZ        19.7570   35.0560   14.5730 N.3   165  LYS165     -0.1314
     77  N         26.1920   39.9330   15.5150 N.am  166  GLY166     -0.1957
     78  CA        26.6120   41.2240   16.0360 C.3   166  GLY166      0.1869
     79  C         28.0700   41.3490   16.4460 C.2   166  GLY166      0.2309
     80  O         28.8950   40.5030   16.1000 O.2   166  GLY166     -0.2863
     81  N         30.9650   42.2100   19.6970 N.3   168  HIS168     -0.1241
     82  CA        31.1850   42.1830   21.1390 C.3   168  HIS168      0.1621
     83  C         32.2710   43.1890   21.5260 C.2   168  HIS168      0.2264
     84  O         33.3150   43.2840   20.8730 O.2   168  HIS168     -0.2867
     85  CB        31.6250   40.7870   21.6010 C.3   168  HIS168      0.0745
     86  CG        30.5510   39.7460   21.5170 C.ar  168  HIS168      0.0817
     87  ND1       30.8120   38.3970   21.6330 N.ar  168  HIS168     -0.2268
     88  CD2       29.2120   39.8580   21.3470 C.ar  168  HIS168      0.1154
     89  CE1       29.6800   37.7230   21.5360 C.ar  168  HIS168      0.1986
     90  NE2       28.6940   38.5850   21.3630 N.ar  168  HIS168     -0.2212
     91  N         24.7990   40.0440   30.4710 N.3   220  ARG220     -0.1245
     92  CA        25.7450   38.9840   30.8010 C.3   220  ARG220      0.1563
     93  C         26.8990   39.4300   31.6910 C.2   220  ARG220      0.2260
     94  O         27.9640   38.8100   31.7140 O.2   220  ARG220     -0.2867
     95  CB        26.2790   38.3390   29.5180 C.3   220  ARG220      0.0307
     96  CG        25.1920   37.6400   28.7190 C.3   220  ARG220      0.0489
     97  CD        25.7550   36.4890   27.8950 C.3   220  ARG220      0.2205
     98  NE        26.7110   36.9340   26.8860 N.pl3 220  ARG220     -0.0865
     99  CZ        26.3930   37.6740   25.8310 C.cat 220  ARG220      0.5346
    100  NH1       25.1360   38.0550   25.6410 N.pl3 220  ARG220      0.1354
    101  NH2       27.3340   38.0350   24.9690 N.pl3 220  ARG220      0.1354
    102  N         28.4760   34.2970   31.1110 N.3   226  SER226     -0.1202
    103  CA        29.6520   34.2170   30.2560 C.3   226  SER226      0.2020
    104  C         29.3620   34.7060   28.8410 C.2   226  SER226      0.2619
    105  O         28.2100   34.9010   28.4610 O.2   226  SER226     -0.2717
    106  CB        30.1440   32.7680   30.1970 C.3   226  SER226      0.2103
    107  OG        29.1030   31.8970   29.7910 O.3   226  SER226     -0.2182
    108  N         30.4250   34.9020   28.0670 N.am  227  THR227     -0.1938
    109  CA        30.3140   35.3330   26.6780 C.3   227  THR227      0.2028
    110  C         31.2790   34.4520   25.8890 C.2   227  THR227      0.2642
    111  O         32.3180   34.0360   26.4160 O.2   227  THR227     -0.2714
    112  CB        30.6920   36.8260   26.5150 C.3   227  THR227      0.1808
    113  OG1       29.7270   37.6390   27.1980 O.3   227  THR227     -0.2208
    114  CG2       30.7180   37.2230   25.0410 C.3   227  THR227      0.0379
    115  N         30.9360   34.1540   24.6380 N.am  228  VAL228     -0.1977
    116  CA        31.7860   33.3040   23.8120 C.3   228  VAL228      0.1596
    117  C         33.2180   33.8310   23.7920 C.2   228  VAL228      0.2287
    118  O         33.4570   35.0350   23.6770 O.2   228  VAL228     -0.2864
    119  CB        31.2200   33.1800   22.3630 C.3   228  VAL228      0.0276
    120  CG1       31.4840   34.4550   21.5740 C.3   228  VAL228      0.0022
    121  CG2       31.8290   31.9660   21.6800 C.3   228  VAL228      0.0022
    122  N         31.4600   28.7660   16.6550 N.3   234  ARG234     -0.1245
    123  CA        30.0370   28.8670   16.9790 C.3   234  ARG234      0.1563
    124  C         29.3220   27.6740   16.3420 C.2   234  ARG234      0.2260
    125  O         29.6250   27.3000   15.2100 O.2   234  ARG234     -0.2867
    126  CB        29.4190   30.1670   16.4270 C.3   234  ARG234      0.0307
    127  CG        30.1200   31.4680   16.8220 C.3   234  ARG234      0.0489
    128  CD        30.4880   31.4910   18.2900 C.3   234  ARG234      0.2205
    129  NE        29.3260   31.2380   19.1330 N.pl3 234  ARG234     -0.0865
    130  CZ        28.4780   32.1680   19.5590 C.cat 234  ARG234      0.5346
    131  NH1       28.6520   33.4420   19.2310 N.pl3 234  ARG234      0.1354
    132  NH2       27.4450   31.8180   20.3190 N.pl3 234  ARG234      0.1354
    133  N         26.9460   26.9360   14.4920 N.3   236  ARG236     -0.1245
    134  CA        26.0620   27.4670   13.4550 C.3   236  ARG236      0.1563
    135  C         26.5960   27.1190   12.0720 C.2   236  ARG236      0.2260
    136  O         27.7580   26.7530   11.9320 O.2   236  ARG236     -0.2867
    137  CB        25.9790   28.9840   13.5830 C.3   236  ARG236      0.0307
    138  CG        25.6030   29.4240   14.9670 C.3   236  ARG236      0.0489
    139  CD        25.4070   30.9100   15.0530 C.3   236  ARG236      0.2205
    140  NE        25.1700   31.2970   16.4360 N.pl3 236  ARG236     -0.0865
    141  CZ        24.7210   32.4850   16.8120 C.cat 236  ARG236      0.5346
    142  NH1       24.4540   33.4130   15.9030 N.pl3 236  ARG236      0.1354
    143  NH2       24.5390   32.7410   18.0960 N.pl3 236  ARG236      0.1354
@<TRIPOS>BOND
     1   136   135    2
     2   135   134    1
     3   134   137    1
     4   134   133    1
     5   137   138    1
     6    73    72    1
     7    73    74    1
     8    71    70    2
     9    69    72    1
    10    69    70    1
    11    69    68    1
    12    75    74    1
    13    75    76    1
    14    70    77   am
    15   138   139    1
    16   139   140    1
    17   125   124    2
    18    77    78    1
    19   142   141    1
    20    78    79    1
    21    80    79    2
    22   124   123    1
    23   126   127    1
    24   126   123    1
    25   140   141    2
    26   122   123    1
    27   141   143    1
    28   127   128    1
    29    62    63    1
    30    64    65    2
    31    64    63    1
    32    67    66    1
    33    63    66    1
    34    56    57    2
    35    56    55    1
    36   128   129    1
    37    55    54    1
    38    55    58    1
    39   129   130    2
    40   131   130    1
    41   130   132    1
    42    81    82    1
    43    15    13    1
    44    60    59   ar
    45    58    59    1
    46    14    13    1
    47    13    12    1
    48    59    61   ar
    49    84    83    2
    50    82    83    1
    51    82    85    1
    52    88    90   ar
    53    88    86   ar
    54    90    89   ar
    55    52    51   ar
    56    86    85    1
    57    86    87   ar
    58    89    87   ar
    59   120   119    1
    60   121   119    1
    61     8     9    1
    62    12     9    1
    63   119   116    1
    64     9    10    1
    65    48    49    2
    66    48    47    1
    67     6     5    1
    68    51    53   ar
    69    51    50    1
    70     4     3    2
    71    47    50    1
    72    47    46    1
    73     5     7    1
    74     5     2    1
    75   118   117    2
    76   117   116    1
    77   116   115    1
    78    45    44   ar
    79    45    43   ar
    80     3     2    1
    81    10    11    2
    82    44    42   ar
    83     2     1    1
    84   115   110   am
    85    43    41   ar
    86   101    99    1
    87   114   112    1
    88    42    41   ar
    89   100    99    1
    90    41    40    1
    91    99    98    2
    92   110   111    2
    93   110   109    1
    94    36    37    1
    95   112   109    1
    96   112   113    1
    97   109   108    1
    98    98    97    1
    99    37    40    1
   100    37    38    1
   101    16    17    1
   102    22    24   ar
   103    22    21   ar
   104    24    26   ar
   105    97    96    1
   106    17    20    1
   107    17    18    1
   108    20    21    1
   109   108   104   am
   110    38    39    2
   111    21    23   ar
   112   105   104    2
   113    96    95    1
   114   104   103    1
   115    26    25   ar
   116    18    19    2
   117    95    92    1
   118    23    25   ar
   119   107   106    1
   120   106   103    1
   121   103   102    1
   122    91    92    1
   123    92    93    1
   124    93    94    2
   125    27    28    1
   126    32    31    1
   127    32    33    1
   128    28    31    1
   129    28    29    1
   130    34    33    1
   131    34    35    1
   132    29    30    2
