@<TRIPOS>MOLECULE
tmp/2favB00.pdb
 193 188 0 0 0
SMALL
GASTEIGER

@<TRIPOS>ATOM
      1  N         16.9300   12.1630   16.6600 N.3    20  VAL20      -0.1231
      2  CA        15.4790   11.9860   16.6940 C.3    20  VAL20       0.1692
      3  C         14.8640   13.3250   17.0520 C.2    20  VAL20       0.2592
      4  O         15.4760   14.1540   17.7500 O.2    20  VAL20      -0.2718
      5  CB        15.0790   10.8730   17.7180 C.3    20  VAL20       0.0266
      6  CG1       15.5820   11.2410   19.1260 C.3    20  VAL20       0.0020
      7  CG2       13.5480   10.5240   17.6650 C.3    20  VAL20       0.0020
      8  N         13.6630   13.5600   16.5430 N.am   21  ASP21      -0.1960
      9  CA        12.9050   14.7430   16.9610 C.3    21  ASP21       0.1840
     10  C         12.5030   14.5540   18.4200 C.2    21  ASP21       0.2621
     11  O         11.9670   13.5090   18.7750 O.2    21  ASP21      -0.2715
     12  CB        11.6460   14.8420   16.1160 C.3    21  ASP21       0.1450
     13  CG        10.7530   15.9650   16.5500 C.2    21  ASP21       0.3671
     14  OD1       11.0900   17.1370   16.2850 O.co2  21  ASP21      -0.2456
     15  OD2        9.7230   15.6650   17.1750 O.co2  21  ASP21      -0.2456
     16  N         12.6720   15.5930   19.2380 N.am   22  ILE22      -0.1977
     17  CA        12.4730   15.4300   20.6750 C.3    22  ILE22       0.1596
     18  C         11.0020   15.1070   20.9930 C.2    22  ILE22       0.2287
     19  O         10.7470   14.4080   21.9510 O.2    22  ILE22      -0.2864
     20  CB        13.0320   16.6500   21.4980 C.3    22  ILE22       0.0276
     21  CG1       13.0700   16.3310   23.0060 C.3    22  ILE22       0.0022
     22  CG2       12.1950   17.9170   21.1930 C.3    22  ILE22       0.0022
     23  CD1       13.9440   17.3190   23.8970 C.3    22  ILE22       0.0001
     24  N         14.5850   23.9440   26.2720 N.3    36  ALA36      -0.1231
     25  CA        15.6520   24.9320   26.1950 C.3    36  ALA36       0.1694
     26  C         14.8950   26.2660   26.0730 C.2    36  ALA36       0.2592
     27  O         14.4470   26.6160   25.0050 O.2    36  ALA36      -0.2718
     28  CB        16.5270   24.6880   24.9780 C.3    36  ALA36       0.0304
     29  N         14.8120   26.9920   27.1650 N.am   37  ALA37      -0.1966
     30  CA        13.9210   28.1420   27.2900 C.3    37  ALA37       0.1728
     31  C         14.6420   29.4940   27.2730 C.2    37  ALA37       0.2616
     32  O         15.8640   29.5510   27.2800 O.2    37  ALA37      -0.2715
     33  CB        13.1140   27.9970   28.5680 C.3    37  ALA37       0.0334
     34  N         13.8640   30.5710   27.1920 N.am   38  ASN38      -0.1972
     35  CA        14.3380   31.8870   27.5330 C.3    38  ASN38       0.1688
     36  C         13.7320   32.3550   28.8660 C.2    38  ASN38       0.2292
     37  O         12.8250   31.7160   29.4170 O.2    38  ASN38      -0.2864
     38  CB        14.0690   32.8840   26.3870 C.3    38  ASN38       0.1181
     39  CG        12.5730   33.0230   26.0810 C.2    38  ASN38       0.2629
     40  OD1       11.7680   33.3600   26.9600 O.2    38  ASN38      -0.2716
     41  ND2       12.1980   32.7330   24.8260 N.am   38  ASN38      -0.0877
     42  N          8.8260   32.3350   26.7590 N.3    42  LYS42      -0.1231
     43  CA         8.0710   32.5160   25.5160 C.3    42  LYS42       0.1693
     44  C          8.6320   31.5280   24.5000 C.2    42  LYS42       0.2592
     45  O          9.7420   31.6920   23.9860 O.2    42  LYS42      -0.2718
     46  CB         8.1670   33.9580   25.0240 C.3    42  LYS42       0.0285
     47  CG         7.4710   34.9690   25.9950 C.3    42  LYS42       0.0035
     48  CD         5.9920   34.8290   25.9150 C.3    42  LYS42       0.0206
     49  CE         5.2770   35.8500   26.8060 C.3    42  LYS42       0.1093
     50  NZ         3.8010   35.5050   26.8110 N.3    42  LYS42      -0.1314
     51  N          7.8550   30.4960   24.2250 N.am   43  HIS43      -0.1962
     52  CA         8.3140   29.3440   23.4500 C.3    43  HIS43       0.1787
     53  C          8.2490   29.5670   21.9450 C.2    43  HIS43       0.2621
     54  O          7.2370   29.3070   21.3240 O.2    43  HIS43      -0.2715
     55  CB         7.5150   28.1150   23.9060 C.3    43  HIS43       0.0785
     56  CG         7.5540   27.9340   25.3870 C.ar   43  HIS43       0.0821
     57  ND1        8.7310   27.9980   26.1040 N.ar   43  HIS43      -0.2267
     58  CD2        6.5670   27.7390   26.2960 C.ar   43  HIS43       0.1154
     59  CE1        8.4660   27.8340   27.3890 C.ar   43  HIS43       0.1986
     60  NE2        7.1630   27.6660   27.5270 N.ar   43  HIS43      -0.2212
     61  N          9.3820   29.9470   21.3500 N.am   44  GLY44      -0.1940
     62  CA         9.4170   30.4590   19.9570 C.3    44  GLY44       0.2014
     63  C          9.5690   29.5690   18.7250 C.2    44  GLY44       0.2639
     64  O          8.6660   29.5270   17.8770 O.2    44  GLY44      -0.2714
     65  N         10.7140   28.8980   18.5800 N.am   45  GLY45      -0.1939
     66  CA        11.0470   28.2430   17.3060 C.3    45  GLY45       0.2014
     67  C         11.5110   26.7990   17.4340 C.2    45  GLY45       0.2639
     68  O         10.7200   25.8720   17.2020 O.2    45  GLY45      -0.2714
     69  N         12.7950   26.6410   17.7450 N.am   46  GLY46      -0.1939
     70  CA        13.4450   25.4330   18.2530 C.3    46  GLY46       0.2014
     71  C         12.6450   24.4690   19.0750 C.2    46  GLY46       0.2639
     72  O         11.4450   24.2800   18.8340 O.2    46  GLY46      -0.2714
     73  N         13.3230   23.8720   20.0500 N.am   47  VAL47      -0.1963
     74  CA        12.7380   22.8260   20.8940 C.3    47  VAL47       0.1727
     75  C         11.4880   23.3240   21.6080 C.2    47  VAL47       0.2616
     76  O         10.4830   22.6200   21.6640 O.2    47  VAL47      -0.2715
     77  CB        13.7610   22.2890   21.9480 C.3    47  VAL47       0.0290
     78  CG1       13.0410   21.4830   23.0460 C.3    47  VAL47       0.0023
     79  CG2       14.8020   21.4100   21.2690 C.3    47  VAL47       0.0023
     80  N         11.5820   24.5180   22.1950 N.am   48  ALA48      -0.1977
     81  CA        10.4710   25.0710   22.9860 C.3    48  ALA48       0.1597
     82  C          9.2090   25.1920   22.1400 C.2    48  ALA48       0.2287
     83  O          8.1130   24.8270   22.5830 O.2    48  ALA48      -0.2864
     84  CB        10.8690   26.4120   23.5670 C.3    48  ALA48       0.0319
     85  N          8.4770   23.5080   19.4820 N.3    50  ALA50      -0.1245
     86  CA         8.0290   22.1540   19.1440 C.3    50  ALA50       0.1562
     87  C          7.2570   21.5130   20.2810 C.2    50  ALA50       0.2260
     88  O          6.2010   20.9240   20.0370 O.2    50  ALA50      -0.2867
     89  CB         9.2350   21.2810   18.7620 C.3    50  ALA50       0.0290
     90  N         19.5470   28.3630   28.8870 N.3    94  GLY94      -0.1225
     91  CA        20.9740   28.4620   28.5580 C.3    94  GLY94       0.1811
     92  C         21.3270   29.9100   28.1950 C.2    94  GLY94       0.2280
     93  O         20.4220   30.6920   27.9400 O.2    94  GLY94      -0.2866
     94  N         17.3400   18.3070   25.2000 N.3   122  PRO122     -0.2102
     95  CA        18.0880   18.7410   24.0360 C.3   122  PRO122      0.1504
     96  C         19.4710   19.2970   24.4400 C.2   122  PRO122      0.2576
     97  O         19.7510   19.4840   25.6410 O.2   122  PRO122     -0.2718
     98  CB        17.2010   19.8720   23.5050 C.3   122  PRO122      0.0282
     99  CG        16.7560   20.5670   24.7960 C.3   122  PRO122      0.0208
    100  CD        16.6030   19.4360   25.8240 C.3   122  PRO122      0.0893
    101  N         20.3080   19.6270   23.4610 N.am  123  LEU123     -0.1966
    102  CA        21.5660   20.3540   23.7610 C.3   123  LEU123      0.1728
    103  C         21.3050   21.8600   24.0160 C.2   123  LEU123      0.2616
    104  O         21.0040   22.5900   23.0790 O.2   123  LEU123     -0.2715
    105  CB        22.5990   20.1990   22.6270 C.3   123  LEU123      0.0311
    106  CG        23.2520   18.8210   22.4490 C.3   123  LEU123      0.0022
    107  CD1       24.1400   18.8270   21.1690 C.3   123  LEU123      0.0001
    108  CD2       24.0140   18.4010   23.6990 C.3   123  LEU123      0.0001
    109  N         21.4300   22.3110   25.2680 N.am  124  LEU124     -0.1963
    110  CA        21.1190   23.7250   25.6270 C.3   124  LEU124      0.1728
    111  C         22.0050   24.7150   24.8780 C.2   124  LEU124      0.2617
    112  O         23.2040   24.4730   24.7430 O.2   124  LEU124     -0.2715
    113  CB        21.2920   23.9740   27.1410 C.3   124  LEU124      0.0311
    114  CG        20.4070   23.0950   28.0470 C.3   124  LEU124      0.0022
    115  CD1       20.7660   23.3340   29.4950 C.3   124  LEU124      0.0001
    116  CD2       18.9010   23.2710   27.7890 C.3   124  LEU124      0.0001
    117  N         21.3990   25.8160   24.4240 N.am  125  SER125     -0.1936
    118  CA        22.1020   26.9280   23.7860 C.3   125  SER125      0.2055
    119  C         22.6710   26.6340   22.4020 C.2   125  SER125      0.2643
    120  O         23.2130   27.5370   21.7780 O.2   125  SER125     -0.2714
    121  CB        23.2390   27.4370   24.6780 C.3   125  SER125      0.2130
    122  OG        22.6740   28.0940   25.7780 O.3   125  SER125     -0.2179
    123  N         22.4850   25.4090   21.9210 N.am  126  ALA126     -0.1963
    124  CA        23.1450   24.9550   20.6890 C.3   126  ALA126      0.1728
    125  C         22.4290   25.2920   19.3770 C.2   126  ALA126      0.2617
    126  O         22.9550   24.9890   18.2750 O.2   126  ALA126     -0.2715
    127  CB        23.4370   23.4350   20.8060 C.3   126  ALA126      0.0334
    128  N         21.2420   25.9010   19.4540 N.am  127  GLY127     -0.1940
    129  CA        20.4560   26.2010   18.2460 C.3   127  GLY127      0.2014
    130  C         20.3990   27.7090   18.1020 C.2   127  GLY127      0.2639
    131  O         21.4020   28.3460   17.8020 O.2   127  GLY127     -0.2714
    132  N         19.2270   28.2680   18.3830 N.am  128  ILE128     -0.1963
    133  CA        18.9810   29.7280   18.3310 C.3   128  ILE128      0.1727
    134  C         19.9730   30.5440   19.1790 C.2   128  ILE128      0.2616
    135  O         20.3330   31.6990   18.8330 O.2   128  ILE128     -0.2715
    136  CB        17.4980   29.9710   18.7520 C.3   128  ILE128      0.0290
    137  CG1       16.5770   29.6730   17.5480 C.3   128  ILE128      0.0022
    138  CG2       17.2740   31.3330   19.2960 C.3   128  ILE128      0.0023
    139  CD1       15.2050   29.0950   17.9110 C.3   128  ILE128      0.0001
    140  N         20.4370   29.9530   20.2800 N.am  129  PHE129     -0.1974
    141  CA        21.3260   30.6590   21.1910 C.3   129  PHE129      0.1639
    142  C         22.8010   30.6780   20.7890 C.2   129  PHE129      0.2290
    143  O         23.6210   31.3190   21.4350 O.2   129  PHE129     -0.2864
    144  CB        21.1020   30.1710   22.6190 C.3   129  PHE129      0.0560
    145  CG        19.9430   30.8090   23.3010 C.ar  129  PHE129     -0.0200
    146  CD1       19.6450   30.4740   24.6020 C.ar  129  PHE129     -0.0042
    147  CD2       19.1470   31.7820   22.6600 C.ar  129  PHE129     -0.0042
    148  CE1       18.5870   31.0750   25.2670 C.ar  129  PHE129     -0.0003
    149  CE2       18.0960   32.4010   23.3150 C.ar  129  PHE129     -0.0003
    150  CZ        17.7750   32.0350   24.6190 C.ar  129  PHE129     -0.0000
    151  N         27.4180   23.3640   19.1000 N.3   133  PRO133     -0.2116
    152  CA        26.7640   22.1540   19.6490 C.3   133  PRO133      0.1372
    153  C         27.7360   21.2220   20.3630 C.2   133  PRO133      0.2244
    154  O         27.4130   20.6500   21.3950 O.2   133  PRO133     -0.2868
    155  CB        26.1890   21.4680   18.4040 C.3   133  PRO133      0.0268
    156  CG        26.0600   22.5740   17.3990 C.3   133  PRO133      0.0207
    157  CD        27.1350   23.5560   17.6720 C.3   133  PRO133      0.0892
    158  N         18.1760   14.0690   22.7290 N.3   151  ALA151     -0.1231
    159  CA        17.6810   13.9880   21.3490 C.3   151  ALA151      0.1694
    160  C         18.2420   15.1690   20.5460 C.2   151  ALA151      0.2592
    161  O         18.0580   16.3410   20.9250 O.2   151  ALA151     -0.2718
    162  CB        16.1780   13.9810   21.3170 C.3   151  ALA151      0.0304
    163  N         18.9220   14.8500   19.4470 N.am  152  VAL152     -0.1966
    164  CA        19.3180   15.8930   18.4910 C.3   152  VAL152      0.1727
    165  C         18.6390   15.6450   17.1370 C.2   152  VAL152      0.2616
    166  O         18.5640   14.5110   16.6910 O.2   152  VAL152     -0.2715
    167  CB        20.8540   16.0130   18.3190 C.3   152  VAL152      0.0290
    168  CG1       21.5300   16.3330   19.6480 C.3   152  VAL152      0.0023
    169  CG2       21.4570   14.7690   17.6520 C.3   152  VAL152      0.0023
    170  N         18.1670   16.6850   16.4770 N.am  153  ASN153     -0.1958
    171  CA        17.5180   16.4510   15.1680 C.3   153  ASN153      0.1819
    172  C         18.4000   16.8230   13.9710 C.2   153  ASN153      0.2621
    173  O         17.9530   16.7600   12.8200 O.2   153  ASN153     -0.2715
    174  CB        16.1300   17.1100   15.0880 C.3   153  ASN153      0.1195
    175  CG        16.2130   18.6130   15.0040 C.2   153  ASN153      0.2630
    176  OD1       17.2630   19.2080   15.2710 O.2   153  ASN153     -0.2716
    177  ND2       15.1060   19.2420   14.6390 N.am  153  ASN153     -0.0877
    178  N         19.6500   17.1720   14.2520 N.am  154  ASP154     -0.1971
    179  CA        20.6320   17.5500   13.2480 C.3   154  ASP154      0.1709
    180  C         21.5010   16.3180   12.9070 C.2   154  ASP154      0.2293
    181  O         22.3440   15.9170   13.6880 O.2   154  ASP154     -0.2864
    182  CB        21.4910   18.7090   13.7910 C.3   154  ASP154      0.1436
    183  CG        22.5000   19.2340   12.7660 C.2   154  ASP154      0.3671
    184  OD1       22.8760   18.4970   11.8350 O.co2 154  ASP154     -0.2456
    185  OD2       22.9140   20.4050   12.8870 O.co2 154  ASP154     -0.2456
    186  N         25.3860   16.8860   12.8600 N.3   157  LEU157     -0.1245
    187  CA        25.8780   16.9860   14.2370 C.3   157  LEU157      0.1561
    188  C         26.0170   15.6190   14.9040 C.2   157  LEU157      0.2260
    189  O         27.0710   15.2840   15.5000 O.2   157  LEU157     -0.2867
    190  CB        24.9060   17.8400   15.0620 C.3   157  LEU157      0.0270
    191  CG        25.1720   17.8750   16.5680 C.3   157  LEU157      0.0019
    192  CD1       26.5940   18.3720   16.8470 C.3   157  LEU157      0.0001
    193  CD2       24.1260   18.8070   17.1830 C.3   157  LEU157      0.0001
@<TRIPOS>BOND
     1   184   183   ar
     2   183   185   ar
     3   183   182    1
     4   173   172    2
     5   186   187    1
     6   180   179    1
     7   180   181    2
     8   179   182    1
     9   179   178    1
    10   172   178   am
    11   172   171    1
    12   187   188    1
    13   187   190    1
    14   177   175   am
    15   188   189    2
    16   175   174    1
    17   175   176    2
    18   190   191    1
    19   174   171    1
    20   171   170    1
    21    12    13    1
    22    12     9    1
    23    14    13   ar
    24   170   165   am
    25     8     9    1
    26     8     3   am
    27    13    15   ar
    28   191   192    1
    29   191   193    1
    30     1     2    1
    31   166   165    2
    32     2     3    1
    33     2     5    1
    34     9    10    1
    35     3     4    2
    36   165   164    1
    37    68    67    2
    38    66    67    1
    39    66    65    1
    40   156   157    1
    41   156   155    1
    42    67    69   am
    43   137   139    1
    44   137   136    1
    45   169   167    1
    46     7     5    1
    47   157   151    1
    48     5     6    1
    49    69    70    1
    50   131   130    2
    51    64    63    2
    52   130   129    1
    53   130   132   am
    54   129   128    1
    55    70    71    1
    56   126   125    2
    57   167   164    1
    58   167   168    1
    59   133   132    1
    60   133   136    1
    61   133   134    1
    62   155   152    1
    63    10    11    2
    64    10    16   am
    65   164   163    1
    66    65    63   am
    67    63    62    1
    68   136   138    1
    69    89    86    1
    70   135   134    2
    71    72    71    2
    72    71    73   am
    73   151   152    1
    74    86    85    1
    75    86    87    1
    76   134   140   am
    77    16    17    1
    78   125   128   am
    79   125   124    1
    80   163   160   am
    81   152   153    1
    82    62    61    1
    83    88    87    2
    84    73    74    1
    85   140   141    1
    86   153   154    2
    87   160   161    2
    88   160   159    1
    89    17    18    1
    90    17    20    1
    91   124   127    1
    92   124   123    1
    93   142   141    1
    94   142   143    2
    95    74    75    1
    96    74    77    1
    97    18    19    2
    98   107   106    1
    99   141   144    1
   100    22    20    1
   101    79    77    1
   102   162   159    1
   103    54    53    2
   104   159   158    1
   105    61    53   am
   106    20    21    1
   107    75    76    2
   108    75    80   am
   109   120   119    2
   110   123   119   am
   111    53    52    1
   112    77    78    1
   113    82    83    2
   114    82    81    1
   115    80    81    1
   116   119   118    1
   117   106   105    1
   118   106   108    1
   119   144   145    1
   120   105   102    1
   121   147   145   ar
   122   147   149   ar
   123    81    84    1
   124    21    23    1
   125   104   103    2
   126   145   146   ar
   127   149   150   ar
   128    52    55    1
   129    52    51    1
   130   101   102    1
   131   101    96   am
   132    98    95    1
   133    98    99    1
   134   102   103    1
   135   118   117    1
   136   118   121    1
   137    55    56    1
   138    45    44    2
   139   103   109   am
   140    95    96    1
   141    95    94    1
   142    51    44   am
   143   117   111   am
   144    96    97    2
   145    44    43    1
   146   146   148   ar
   147   150   148   ar
   148   121   122    1
   149   112   111    2
   150    99   100    1
   151    41    39   am
   152   111   110    1
   153    28    25    1
   154    27    26    2
   155    46    43    1
   156    46    47    1
   157    94   100    1
   158   109   110    1
   159    56    57   ar
   160    56    58   ar
   161    43    42    1
   162   110   113    1
   163    48    47    1
   164    48    49    1
   165    26    25    1
   166    26    29   am
   167    39    38    1
   168    39    40    2
   169    57    59   ar
   170    25    24    1
   171    58    60   ar
   172    38    35    1
   173    49    50    1
   174   113   114    1
   175    29    30    1
   176    34    31   am
   177    34    35    1
   178    31    32    2
   179    31    30    1
   180    30    33    1
   181    59    60   ar
   182    35    36    1
   183   116   114    1
   184    93    92    2
   185   114   115    1
   186    92    91    1
   187    91    90    1
   188    36    37    2
