@<TRIPOS>MOLECULE
tmp/2fawB00.pdb
 88 85 0 0 0
SMALL
GASTEIGER

@<TRIPOS>ATOM
      1  N          3.7640   30.5130    1.5840 N.3    56  HIS56      -0.1241
      2  CA         3.0310   29.3770    2.0500 C.3    56  HIS56       0.1621
      3  C          2.6770   29.7450    3.4690 C.2    56  HIS56       0.2264
      4  O          3.5660   29.9510    4.2840 O.2    56  HIS56      -0.2867
      5  CB         3.9090   28.1530    2.0720 C.3    56  HIS56       0.0745
      6  CG         3.3200   27.0420    2.8660 C.ar   56  HIS56       0.0817
      7  ND1        2.3440   26.2100    2.3620 N.ar   56  HIS56      -0.2268
      8  CD2        3.5080   26.6720    4.1490 C.ar   56  HIS56       0.1154
      9  CE1        1.9810   25.3520    3.2960 C.ar   56  HIS56       0.1986
     10  NE2        2.6790   25.6050    4.3870 N.ar   56  HIS56      -0.2212
     11  N          0.0950   26.1630    8.8830 N.3    59  ASP59      -0.1239
     12  CA        -0.9880   25.9750    9.7830 C.3    59  ASP59       0.1674
     13  C         -0.7410   26.8550   10.9810 C.2    59  ASP59       0.2266
     14  O          0.4000   27.0870   11.3600 O.2    59  ASP59      -0.2867
     15  CB        -1.0490   24.5520   10.2310 C.3    59  ASP59       0.1410
     16  CG        -2.2910   24.2740   10.9770 C.2    59  ASP59       0.3668
     17  OD1       -3.3390   24.1190   10.3220 O.co2  59  ASP59      -0.2456
     18  OD2       -2.3190   24.2650   12.2190 O.co2  59  ASP59      -0.2456
     19  N         -1.0990   26.2000   13.9040 N.3    61  SER61      -0.1202
     20  CA        -0.5450   25.4590   15.0300 C.3    61  SER61       0.2020
     21  C          0.9660   25.4560   14.9820 C.2    61  SER61       0.2618
     22  O          1.6160   25.0540   15.9290 O.2    61  SER61      -0.2717
     23  CB        -1.0300   24.0230   14.9770 C.3    61  SER61       0.2103
     24  OG        -0.3520   23.3500   13.9300 O.3    61  SER61      -0.2182
     25  N          1.5220   25.9070   13.8630 N.am   62  TYR62      -0.1975
     26  CA         2.9430   25.8720   13.6720 C.3    62  TYR62       0.1639
     27  C          3.5730   27.1970   13.9210 C.2    62  TYR62       0.2290
     28  O          3.0250   28.2350   13.5970 O.2    62  TYR62      -0.2864
     29  CB         3.3020   25.4510   12.2570 C.3    62  TYR62       0.0560
     30  CG         2.9790   24.0250   12.0260 C.ar   62  TYR62      -0.0198
     31  CD1        3.3970   23.0620   12.9180 C.ar   62  TYR62      -0.0009
     32  CD2        2.2070   23.6500   10.9570 C.ar   62  TYR62      -0.0009
     33  CE1        3.0770   21.7400   12.7330 C.ar   62  TYR62       0.0417
     34  CE2        1.8690   22.3400   10.7660 C.ar   62  TYR62       0.0417
     35  CZ         2.3080   21.3950   11.6550 C.ar   62  TYR62       0.1957
     36  OH         1.9940   20.0870   11.4460 O.3    62  TYR62      -0.2866
     37  N          9.0260   17.8660   13.7480 N.3    83  ILE83      -0.1245
     38  CA         8.5530   17.8110   12.3940 C.3    83  ILE83       0.1561
     39  C          9.2540   18.8850   11.6000 C.2    83  ILE83       0.2260
     40  O          9.5380   19.9850   12.0930 O.2    83  ILE83      -0.2867
     41  CB         6.9970   17.8820   12.3060 C.3    83  ILE83       0.0252
     42  CG1        6.5020   17.2870   10.9840 C.3    83  ILE83       0.0019
     43  CG2        6.4610   19.2940   12.4830 C.3    83  ILE83       0.0019
     44  CD1        4.9660   17.0330   10.9010 C.3    83  ILE83       0.0001
     45  N          9.2520   20.5400    7.4910 N.3    85  PHE85      -0.1241
     46  CA         8.4630   20.6480    6.3040 C.3    85  PHE85       0.1605
     47  C          9.4130   20.8670    5.1790 C.2    85  PHE85       0.2264
     48  O         10.4130   21.5640    5.3140 O.2    85  PHE85      -0.2867
     49  CB         7.5210   21.8220    6.3830 C.3    85  PHE85       0.0534
     50  CG         6.4850   21.6620    7.4180 C.ar   85  PHE85      -0.0203
     51  CD1        5.2250   21.2010    7.0770 C.ar   85  PHE85      -0.0042
     52  CD2        6.7850   21.9380    8.7490 C.ar   85  PHE85      -0.0042
     53  CE1        4.2610   21.0320    8.0450 C.ar   85  PHE85      -0.0003
     54  CE2        5.8170   21.7690    9.7230 C.ar   85  PHE85      -0.0003
     55  CZ         4.5590   21.3280    9.3670 C.ar   85  PHE85      -0.0000
     56  N          4.0710   22.3490    0.4320 N.3    94  ASN94      -0.1225
     57  CA         4.7170   21.4350    1.3350 C.3    94  ASN94       0.1785
     58  C          4.6820   20.0600    0.6780 C.2    94  ASN94       0.2597
     59  O          3.6480   19.4120    0.6490 O.2    94  ASN94      -0.2718
     60  CB         3.9410   21.4540    2.6400 C.3    94  ASN94       0.1169
     61  CG         4.3930   20.4050    3.6130 C.2    94  ASN94       0.2627
     62  OD1        3.5800   19.8950    4.3760 O.2    94  ASN94      -0.2716
     63  ND2        5.6890   20.1010    3.6330 N.am   94  ASN94      -0.0877
     64  N          5.8140   19.6380    0.1340 N.am   95  ILE95      -0.1966
     65  CA         5.8530   18.4470   -0.7150 C.3    95  ILE95       0.1727
     66  C          6.1870   17.2080    0.0860 C.2    95  ILE95       0.2616
     67  O          5.8380   16.0880   -0.2870 O.2    95  ILE95      -0.2715
     68  CB         6.8640   18.6520   -1.8690 C.3    95  ILE95       0.0290
     69  CG1        8.2510   19.0250   -1.3280 C.3    95  ILE95       0.0022
     70  CG2        6.3350   19.7080   -2.8190 C.3    95  ILE95       0.0023
     71  CD1        9.4030   18.8350   -2.3060 C.3    95  ILE95       0.0001
     72  N          6.8690   17.4160    1.2000 N.am   96  LYS96      -0.1963
     73  CA         7.3010   16.3240    2.0350 C.3    96  LYS96       0.1728
     74  C          7.4660   16.8790    3.4180 C.2    96  LYS96       0.2616
     75  O          7.6740   18.0740    3.5940 O.2    96  LYS96      -0.2715
     76  CB         8.6310   15.7530    1.5410 C.3    96  LYS96       0.0311
     77  CG         8.8790   14.3120    1.9730 C.3    96  LYS96       0.0038
     78  CD        10.2370   13.7960    1.5250 C.3    96  LYS96       0.0206
     79  CE        10.3990   12.3260    1.9170 C.3    96  LYS96       0.1093
     80  NZ        11.6110   12.0920    2.7570 N.3    96  LYS96      -0.1314
     81  N          7.3400   16.0080    4.4030 N.am   97  ASN97      -0.1972
     82  CA         7.7540   16.3540    5.7280 C.3    97  ASN97       0.1688
     83  C          8.8660   15.4750    6.1260 C.2    97  ASN97       0.2292
     84  O          9.1460   14.4510    5.5090 O.2    97  ASN97      -0.2864
     85  CB         6.6530   16.1270    6.7310 C.3    97  ASN97       0.1181
     86  CG         5.4780   16.9830    6.4920 C.2    97  ASN97       0.2629
     87  OD1        5.5310   18.0400    5.8350 O.2    97  ASN97      -0.2716
     88  ND2        4.3790   16.5530    7.0460 N.am   97  ASN97      -0.0877
@<TRIPOS>BOND
     1    70    68    1
     2    71    69    1
     3    68    69    1
     4    68    65    1
     5    65    66    1
     6    65    64    1
     7    67    66    2
     8    66    72   am
     9    64    58   am
    10    56    57    1
    11    59    58    2
    12    58    57    1
    13    72    73    1
    14    57    60    1
    15    78    79    1
    16    78    77    1
    17    76    77    1
    18    76    73    1
    19     1     2    1
    20    79    80    1
    21    73    74    1
    22     2     5    1
    23     2     3    1
    24     5     6    1
    25     7     6   ar
    26     7     9   ar
    27    60    61    1
    28     6     8   ar
    29     9    10   ar
    30    74    75    2
    31    74    81   am
    32     3     4    2
    33    61    63   am
    34    61    62    2
    35     8    10   ar
    36    81    82    1
    37    47    48    2
    38    47    46    1
    39    84    83    2
    40    82    83    1
    41    82    85    1
    42    87    86    2
    43    46    49    1
    44    46    45    1
    45    49    50    1
    46    86    85    1
    47    86    88   am
    48    51    50   ar
    49    51    53   ar
    50    50    52   ar
    51    53    55   ar
    52    52    54   ar
    53    11    12    1
    54    55    54   ar
    55    12    15    1
    56    12    13    1
    57    15    16    1
    58    17    16   ar
    59    34    32   ar
    60    34    35   ar
    61    44    42    1
    62    32    30   ar
    63    16    18   ar
    64    13    14    2
    65    42    41    1
    66    36    35    1
    67    39    40    2
    68    39    38    1
    69    35    33   ar
    70    30    29    1
    71    30    31   ar
    72    29    26    1
    73    41    38    1
    74    41    43    1
    75    38    37    1
    76    33    31   ar
    77    28    27    2
    78    26    25    1
    79    26    27    1
    80    25    21   am
    81    19    20    1
    82    24    23    1
    83    23    20    1
    84    21    20    1
    85    21    22    2
