@<TRIPOS>MOLECULE
tmp/2fb2A00.pdb
 164 157 0 0 0
SMALL
GASTEIGER

@<TRIPOS>ATOM
      1  N         11.4700   75.7430    8.7160 N.3    22  CYS22      -0.1235
      2  CA        11.8540   74.3800    8.3190 C.3    22  CYS22       0.1677
      3  C         10.9730   73.8360    7.2120 C.2    22  CYS22       0.2270
      4  O          9.8200   74.2630    7.0380 O.2    22  CYS22      -0.2867
      5  CB        11.8620   73.4540    9.5390 C.3    22  CYS22       0.0956
      6  SG        12.4740   71.7700    9.2450 S.3    22  CYS22      -0.0801
      7  N          8.1130   65.3230   16.9020 N.3    28  TYR28      -0.1227
      8  CA         8.7600   65.5190   18.1810 C.3    28  TYR28       0.1736
      9  C          9.5620   66.8190   18.2600 C.2    28  TYR28       0.2595
     10  O         10.1370   67.1130   19.2990 O.2    28  TYR28      -0.2718
     11  CB         9.6160   64.2960   18.5280 C.3    28  TYR28       0.0548
     12  CG        10.8190   64.0550   17.6260 C.ar   28  TYR28      -0.0200
     13  CD1       12.0490   64.6330   17.9240 C.ar   28  TYR28      -0.0009
     14  CD2       10.7350   63.2140   16.5050 C.ar   28  TYR28      -0.0009
     15  CE1       13.1760   64.4160   17.1200 C.ar   28  TYR28       0.0417
     16  CE2       11.8580   62.9860   15.6800 C.ar   28  TYR28       0.0417
     17  CZ        13.0800   63.6010   16.0000 C.ar   28  TYR28       0.1957
     18  OH        14.2110   63.4060   15.2400 O.3    28  TYR28      -0.2866
     19  N          9.5590   67.6090   17.1800 N.am   29  CYS29      -0.1970
     20  CA        10.3780   68.8280   17.0820 C.3    29  CYS29       0.1712
     21  C          9.5560   70.0460   16.6440 C.2    29  CYS29       0.2296
     22  O          9.4690   71.0540   17.3690 O.2    29  CYS29      -0.2864
     23  CB        11.5240   68.6010   16.0910 C.3    29  CYS29       0.0983
     24  SG        12.5290   70.0760   15.8180 S.3    29  CYS29      -0.0798
     25  N         28.9300   74.9740   14.5780 N.3    69  ARG69      -0.1245
     26  CA        27.9210   74.0710   14.0400 C.3    69  ARG69       0.1563
     27  C         26.7320   74.9030   13.5650 C.2    69  ARG69       0.2260
     28  O         26.2000   75.7260   14.3270 O.2    69  ARG69      -0.2867
     29  CB        27.4760   73.1220   15.1310 C.3    69  ARG69       0.0307
     30  CG        26.7670   71.8570   14.6310 C.3    69  ARG69       0.0489
     31  CD        26.3390   71.0320   15.8470 C.3    69  ARG69       0.2205
     32  NE        24.9550   70.6480   15.6770 N.pl3  69  ARG69      -0.0865
     33  CZ        23.9400   71.0390   16.4360 C.cat  69  ARG69       0.5346
     34  NH1       24.1210   71.8010   17.5090 N.pl3  69  ARG69       0.1354
     35  NH2       22.7320   70.5990   16.1280 N.pl3  69  ARG69       0.1354
     36  N         22.9890   75.2350   12.3150 N.3    71  THR71      -0.1203
     37  CA        21.7670   74.5090   12.5660 C.3    71  THR71       0.1994
     38  C         20.5680   75.4470   12.4120 C.2    71  THR71       0.2618
     39  O         20.6860   76.5610   11.8560 O.2    71  THR71      -0.2717
     40  CB        21.8400   73.7700   13.9390 C.3    71  THR71       0.1784
     41  OG1       20.6810   72.9260   14.1040 O.3    71  THR71      -0.2211
     42  CG2       21.9190   74.7680   15.1220 C.3    71  THR71       0.0376
     43  N         19.4040   75.0160   12.8980 N.am   72  GLY72      -0.1942
     44  CA        18.1610   75.7650   12.6970 C.3    72  GLY72       0.2014
     45  C         17.1210   75.2080   13.6670 C.2    72  GLY72       0.2639
     46  O         17.4950   74.8210   14.7670 O.2    72  GLY72      -0.2714
     47  N         15.8550   75.0590   13.2500 N.am   73  GLY73      -0.1939
     48  CA        15.4460   75.1990   11.8640 C.3    73  GLY73       0.2014
     49  C         16.1710   74.2370   10.9110 C.2    73  GLY73       0.2639
     50  O         17.0230   73.4340   11.3170 O.2    73  GLY73      -0.2714
     51  N         15.8400   74.3430    9.6370 N.am   74  GLU74      -0.1963
     52  CA        16.5860   73.6640    8.6160 C.3    74  GLU74       0.1718
     53  C         17.4960   74.7270    8.0030 C.2    74  GLU74       0.2458
     54  O         17.0180   75.6240    7.3070 O.2    74  GLU74      -0.2730
     55  CB        15.6460   73.0490    7.5690 C.3    74  GLU74       0.0428
     56  CG        16.3410   72.6770    6.2940 C.3    74  GLU74       0.1163
     57  CD        17.5900   71.7920    6.5480 C.2    74  GLU74       0.3649
     58  OE1       18.5700   71.9940    5.8340 O.co2  74  GLU74      -0.2457
     59  OE2       17.5710   70.9080    7.4420 O.co2  74  GLU74      -0.2457
     60  N         18.8040   74.6310    8.2630 N.am   75  PRO75      -0.2727
     61  CA        19.7140   75.6910    7.7990 C.3    75  PRO75       0.1402
     62  C         19.7680   75.9600    6.2820 C.2    75  PRO75       0.2269
     63  O         19.9960   77.1040    5.8710 O.2    75  PRO75      -0.2865
     64  CB        21.0780   75.2590    8.3350 C.3    75  PRO75       0.0296
     65  CG        20.9410   73.7460    8.6010 C.3    75  PRO75       0.0237
     66  CD        19.5040   73.5400    8.9790 C.3    75  PRO75       0.0939
     67  N         24.2370   70.6770   10.3810 N.3   100  THR100     -0.1203
     68  CA        23.2380   69.6790   10.6940 C.3   100  THR100      0.1994
     69  C         22.0260   69.9830    9.8150 C.2   100  THR100      0.2619
     70  O         21.4810   71.0550    9.8940 O.2   100  THR100     -0.2717
     71  CB        22.8620   69.7520   12.1820 C.3   100  THR100      0.1784
     72  OG1       24.0720   69.8730   12.9170 O.3   100  THR100     -0.2211
     73  CG2       22.1630   68.4950   12.6300 C.3   100  THR100      0.0376
     74  N         21.6120   69.0270    8.9960 N.am  101  THR101     -0.1938
     75  CA        20.5510   69.2560    8.0440 C.3   101  THR101      0.2028
     76  C         19.7060   67.9880    7.8890 C.2   101  THR101      0.2642
     77  O         20.2070   66.8580    8.1550 O.2   101  THR101     -0.2714
     78  CB        21.1620   69.6980    6.6760 C.3   101  THR101      0.1808
     79  OG1       20.1350   69.9280    5.7130 O.3   101  THR101     -0.2208
     80  CG2       22.1000   68.6710    6.1310 C.3   101  THR101      0.0379
     81  N         18.4400   68.1610    7.4910 N.am  102  ASN102     -0.1971
     82  CA        17.6270   67.0200    7.0450 C.3   102  ASN102      0.1688
     83  C         18.0580   66.5790    5.6350 C.2   102  ASN102      0.2292
     84  O         17.6140   65.5500    5.1370 O.2   102  ASN102     -0.2864
     85  CB        16.0980   67.2810    7.1340 C.3   102  ASN102      0.1181
     86  CG        15.6250   68.4360    6.2330 C.2   102  ASN102      0.2629
     87  OD1       16.1450   68.6420    5.1320 O.2   102  ASN102     -0.2716
     88  ND2       14.6090   69.1930    6.7060 N.am  102  ASN102     -0.0877
     89  N         20.3490   64.3380    9.4550 N.3   124  SER124     -0.1217
     90  CA        19.3350   63.7090   10.2990 C.3   124  SER124      0.1889
     91  C         18.3470   62.9100    9.4520 C.2   124  SER124      0.2288
     92  O         17.6610   63.4710    8.6040 O.2   124  SER124     -0.2866
     93  CB        18.5730   64.7590   11.0950 C.3   124  SER124      0.2089
     94  OG        19.4720   65.5470   11.8490 O.3   124  SER124     -0.2183
     95  N         15.5330   59.7040   10.1710 N.3   126  ASP126     -0.1239
     96  CA        14.9490   58.9000   11.2400 C.3   126  ASP126      0.1674
     97  C         14.3570   57.5690   10.7780 C.2   126  ASP126      0.2266
     98  O         13.9110   56.7900   11.5960 O.2   126  ASP126     -0.2867
     99  CB        13.9250   59.7070   12.0550 C.3   126  ASP126      0.1410
    100  CG        14.5790   60.5640   13.1570 C.2   126  ASP126      0.3668
    101  OD1       15.8430   60.5920   13.2690 O.co2 126  ASP126     -0.2456
    102  OD2       13.8150   61.2130   13.9200 O.co2 126  ASP126     -0.2456
    103  N         22.5690   60.8320   11.4330 N.3   163  ASN163     -0.1240
    104  CA        22.1400   60.8030   12.8210 C.3   163  ASN163      0.1653
    105  C         20.7120   60.2940   12.8110 C.2   163  ASN163      0.2266
    106  O         19.9120   60.7840   12.0210 O.2   163  ASN163     -0.2867
    107  CB        22.1780   62.2250   13.4090 C.3   163  ASN163      0.1155
    108  CG        23.6030   62.7490   13.5650 C.2   163  ASN163      0.2627
    109  OD1       24.3450   62.2760   14.4290 O.2   163  ASN163     -0.2716
    110  ND2       23.9960   63.7440   12.7290 N.am  163  ASN163     -0.0877
    111  N         17.4350   59.3930   15.5190 N.3   165  VAL165     -0.1245
    112  CA        16.7720   59.3350   16.8450 C.3   165  VAL165      0.1561
    113  C         15.7770   58.1760   16.8910 C.2   165  VAL165      0.2260
    114  O         14.7890   58.1600   16.1410 O.2   165  VAL165     -0.2867
    115  CB        16.0410   60.6590   17.1960 C.3   165  VAL165      0.0252
    116  CG1       15.3350   60.5790   18.5540 C.3   165  VAL165      0.0019
    117  CG2       17.0260   61.7910   17.1950 C.3   165  VAL165      0.0019
    118  N         20.6490   57.7200   18.3780 N.3   192  ILE192     -0.1231
    119  CA        20.5390   58.6480   19.4850 C.3   192  ILE192      0.1692
    120  C         19.2970   58.3000   20.3060 C.2   192  ILE192      0.2592
    121  O         18.2330   58.1040   19.7490 O.2   192  ILE192     -0.2718
    122  CB        20.5010   60.0930   18.9500 C.3   192  ILE192      0.0266
    123  CG1       21.7250   60.3300   18.0290 C.3   192  ILE192      0.0019
    124  CG2       20.4080   61.1250   20.1070 C.3   192  ILE192      0.0020
    125  CD1       21.8350   61.7400   17.3980 C.3   192  ILE192      0.0001
    126  N         19.4640   58.1710   21.6220 N.am  193  GLU193     -0.1966
    127  CA        18.3550   57.9510   22.5400 C.3   193  GLU193      0.1733
    128  C         17.4110   59.1430   22.5170 C.2   193  GLU193      0.2616
    129  O         17.8410   60.2920   22.5270 O.2   193  GLU193     -0.2715
    130  CB        18.8710   57.7390   23.9670 C.3   193  GLU193      0.0429
    131  CG        19.5420   56.3750   24.2220 C.3   193  GLU193      0.1163
    132  CD        20.2660   56.3060   25.5680 C.2   193  GLU193      0.3649
    133  OE1       20.3360   57.3270   26.2760 O.co2 193  GLU193     -0.2457
    134  OE2       20.7710   55.2290   25.9300 O.co2 193  GLU193     -0.2457
    135  N         16.1220   58.8450   22.4830 N.am  194  PHE194     -0.1960
    136  CA        15.0640   59.8440   22.4660 C.3   194  PHE194      0.1771
    137  C         14.9360   60.5340   23.8250 C.2   194  PHE194      0.2619
    138  O         14.7590   59.8830   24.8440 O.2   194  PHE194     -0.2715
    139  CB        13.7340   59.1700   22.0740 C.3   194  PHE194      0.0574
    140  CG        12.5570   60.1110   22.0260 C.ar  194  PHE194     -0.0200
    141  CD1       12.5390   61.1800   21.1310 C.ar  194  PHE194     -0.0042
    142  CD2       11.4660   59.9230   22.8720 C.ar  194  PHE194     -0.0042
    143  CE1       11.4590   62.0550   21.0800 C.ar  194  PHE194     -0.0003
    144  CE2       10.3660   60.7830   22.8250 C.ar  194  PHE194     -0.0003
    145  CZ        10.3680   61.8570   21.9240 C.ar  194  PHE194     -0.0000
    146  N         15.0190   61.8560   23.8100 N.am  195  MET195     -0.1977
    147  CA        14.9150   62.6850   25.0070 C.3   195  MET195      0.1605
    148  C         13.4910   63.2020   25.1840 C.2   195  MET195      0.2287
    149  O         12.9510   63.8770   24.3150 O.2   195  MET195     -0.2864
    150  CB        15.8770   63.8610   24.9130 C.3   195  MET195      0.0413
    151  CG        17.3160   63.4250   24.6380 C.3   195  MET195      0.0598
    152  SD        18.4640   64.7900   24.7350 S.3   195  MET195     -0.1393
    153  CE        18.2090   65.5030   23.1140 C.3   195  MET195      0.0692
    154  N         19.0340   73.1430   25.5050 N.3   278  PHE278     -0.1241
    155  CA        17.6960   73.1660   26.0670 C.3   278  PHE278      0.1605
    156  C         17.5810   74.4480   26.8580 C.2   278  PHE278      0.2264
    157  O         18.5890   74.9980   27.2820 O.2   278  PHE278     -0.2867
    158  CB        17.4730   71.9350   26.9270 C.3   278  PHE278      0.0534
    159  CG        17.6250   70.6490   26.1600 C.ar  278  PHE278     -0.0203
    160  CD1       18.8890   70.1400   25.8710 C.ar  278  PHE278     -0.0042
    161  CD2       16.4930   69.9660   25.6960 C.ar  278  PHE278     -0.0042
    162  CE1       19.0340   68.9740   25.1350 C.ar  278  PHE278     -0.0003
    163  CE2       16.6140   68.7950   24.9700 C.ar  278  PHE278     -0.0003
    164  CZ        17.8900   68.2980   24.6830 C.ar  278  PHE278     -0.0000
@<TRIPOS>BOND
     1    87    86    2
     2    84    83    2
     3    83    82    1
     4    79    78    1
     5    58    57   ar
     6    63    62    2
     7    80    78    1
     8    86    88   am
     9    86    85    1
    10    62    61    1
    11    56    57    1
    12    56    55    1
    13    57    59   ar
    14    78    75    1
    15     4     3    2
    16    82    85    1
    17    82    81    1
    18     3     2    1
    19    54    53    2
    20    81    76   am
    21    55    52    1
    22    61    60    1
    23    61    64    1
    24    76    75    1
    25    76    77    2
    26    53    60   am
    27    53    52    1
    28    75    74    1
    29    60    66    1
    30     2     1    1
    31     2     5    1
    32    64    65    1
    33    65    66    1
    34    92    91    2
    35    52    51    1
    36    74    69   am
    37     6     5    1
    38    91    90    1
    39    89    90    1
    40    51    49   am
    41    69    70    2
    42    69    68    1
    43    95    96    1
    44    90    93    1
    45    67    68    1
    46    68    71    1
    47    97    96    1
    48    97    98    2
    49    49    50    2
    50    49    48    1
    51    93    94    1
    52    96    99    1
    53   103   104    1
    54    39    38    2
    55    48    47    1
    56   106   105    2
    57    99   100    1
    58    71    73    1
    59    71    72    1
    60    36    37    1
    61    38    37    1
    62    38    43   am
    63    37    40    1
    64    44    43    1
    65    44    45    1
    66   110   108   am
    67   105   104    1
    68   104   107    1
    69   100   101   ar
    70   100   102   ar
    71    47    45   am
    72   107   108    1
    73   108   109    2
    74    27    26    1
    75    27    28    2
    76    45    46    2
    77    40    41    1
    78    40    42    1
    79    26    25    1
    80    26    29    1
    81    30    29    1
    82    30    31    1
    83    18    17    1
    84   111   112    1
    85    32    31    1
    86    32    33    2
    87    16    17   ar
    88    16    14   ar
    89    24    23    1
    90    17    15   ar
    91    23    20    1
    92    35    33    1
    93   114   113    2
    94    33    34    1
    95    14    12   ar
    96    21    20    1
    97    21    22    2
    98   112   113    1
    99   112   115    1
   100     7     8    1
   101    20    19    1
   102    15    13   ar
   103    19     9   am
   104   117   115    1
   105   115   116    1
   106   125   123    1
   107    12    13   ar
   108    12    11    1
   109   123   122    1
   110     8     9    1
   111     8    11    1
   112     9    10    2
   113   118   119    1
   114   122   119    1
   115   122   124    1
   116   119   120    1
   117   121   120    2
   118   120   126   am
   119   143   141   ar
   120   143   145   ar
   121   141   140   ar
   122   126   127    1
   123   145   144   ar
   124   140   139    1
   125   140   142   ar
   126   139   136    1
   127   136   135    1
   128   136   137    1
   129   135   128   am
   130   128   129    2
   131   128   127    1
   132   127   130    1
   133   144   142   ar
   134   153   152    1
   135   146   137   am
   136   146   147    1
   137   137   138    2
   138   130   131    1
   139   131   132    1
   140   149   148    2
   141   151   152    1
   142   151   150    1
   143   164   163   ar
   144   164   162   ar
   145   150   147    1
   146   163   161   ar
   147   147   148    1
   148   162   160   ar
   149   154   155    1
   150   132   134   ar
   151   132   133   ar
   152   161   159   ar
   153   160   159   ar
   154   155   156    1
   155   155   158    1
   156   159   158    1
   157   156   157    2
