@<TRIPOS>MOLECULE
tmp/2fb3A02.pdb
 97 91 0 0 0
SMALL
GASTEIGER

@<TRIPOS>ATOM
      1  N          8.5270   65.1190   16.5920 N.3    28  TYR28      -0.1227
      2  CA         9.3080   65.4830   17.7930 C.3    28  TYR28       0.1736
      3  C          9.9350   66.9000   17.7780 C.2    28  TYR28       0.2595
      4  O         10.6180   67.3070   18.7250 O.2    28  TYR28      -0.2718
      5  CB        10.4220   64.4600   18.0400 C.3    28  TYR28       0.0548
      6  CG        11.4090   64.2320   16.8950 C.ar   28  TYR28      -0.0200
      7  CD1       12.5620   65.0050   16.7640 C.ar   28  TYR28      -0.0009
      8  CD2       11.2040   63.2130   15.9710 C.ar   28  TYR28      -0.0009
      9  CE1       13.4970   64.7700   15.7360 C.ar   28  TYR28       0.0417
     10  CE2       12.1040   62.9770   14.9440 C.ar   28  TYR28       0.0417
     11  CZ        13.2530   63.7510   14.8340 C.ar   28  TYR28       0.1957
     12  OH        14.1250   63.5020   13.7830 O.3    28  TYR28      -0.2866
     13  N          9.7410   67.6570   16.7070 N.am   29  CYS29      -0.1970
     14  CA        10.4570   68.9170   16.6410 C.3    29  CYS29       0.1712
     15  C          9.5270   70.0860   16.3430 C.2    29  CYS29       0.2296
     16  O          9.4100   71.0240   17.1630 O.2    29  CYS29      -0.2864
     17  CB        11.5940   68.8100   15.6340 C.3    29  CYS29       0.0983
     18  SG        12.5910   70.3160   15.5120 S.3    29  CYS29      -0.0798
     19  N         22.7310   76.0340   12.1430 N.3    71  THR71      -0.1218
     20  CA        21.5410   75.2540   12.3210 C.3    71  THR71       0.1862
     21  C         20.3100   76.1750   12.2320 C.2    71  THR71       0.2287
     22  O         20.3900   77.3390   11.7920 O.2    71  THR71      -0.2866
     23  CB        21.6510   74.3650   13.6140 C.3    71  THR71       0.1770
     24  OG1       20.4620   73.6140   13.7080 O.3    71  THR71      -0.2211
     25  CG2       21.7280   75.1990   14.9220 C.3    71  THR71       0.0375
     26  N         24.1610   71.6940    9.7080 N.3   100  THR100     -0.1218
     27  CA        23.1320   70.6760    9.9740 C.3   100  THR100      0.1862
     28  C         21.8640   71.0050    9.2090 C.2   100  THR100      0.2287
     29  O         21.3160   72.1040    9.3250 O.2   100  THR100     -0.2866
     30  CB        22.8490   70.5310   11.4660 C.3   100  THR100      0.1770
     31  OG1       24.1020   70.5370   12.1600 O.3   100  THR100     -0.2211
     32  CG2       22.1280   69.1860   11.7610 C.3   100  THR100      0.0375
     33  N         20.2870   65.2810    8.5400 N.3   124  SER124     -0.1217
     34  CA        19.3270   64.4430    9.2860 C.3   124  SER124      0.1889
     35  C         18.4490   63.6270    8.3030 C.2   124  SER124      0.2288
     36  O         17.9110   64.1790    7.3560 O.2   124  SER124     -0.2866
     37  CB        18.4620   65.3250   10.1420 C.3   124  SER124      0.2089
     38  OG        19.2750   66.2140   10.8980 O.3   124  SER124     -0.2183
     39  N         15.8570   60.4090    9.1080 N.3   126  ASP126     -0.1239
     40  CA        15.3350   59.4360   10.0850 C.3   126  ASP126      0.1674
     41  C         14.8520   58.1020    9.5090 C.2   126  ASP126      0.2266
     42  O         14.7520   57.1280   10.2420 O.2   126  ASP126     -0.2867
     43  CB        14.2210   60.0700   10.9080 C.3   126  ASP126      0.1410
     44  CG        14.7460   60.9100   12.0850 C.2   126  ASP126      0.3668
     45  OD1       15.8900   61.4440   12.0570 O.co2 126  ASP126     -0.2456
     46  OD2       13.9770   61.0460   13.0580 O.co2 126  ASP126     -0.2456
     47  N         22.6770   61.8260   10.2570 N.3   163  ASN163     -0.1240
     48  CA        22.1840   61.7540   11.6340 C.3   163  ASN163      0.1653
     49  C         20.8220   61.0960   11.6200 C.2   163  ASN163      0.2266
     50  O         19.9170   61.5520   10.9200 O.2   163  ASN163     -0.2867
     51  CB        21.9660   63.1810   12.1970 C.3   163  ASN163      0.1155
     52  CG        23.2600   63.9240   12.4310 C.2   163  ASN163      0.2627
     53  OD1       23.3090   65.1620   12.3720 O.2   163  ASN163     -0.2716
     54  ND2       24.3090   63.1890   12.7080 N.am  163  ASN163     -0.0877
     55  N         17.6630   59.7950   14.1560 N.3   165  VAL165     -0.1245
     56  CA        17.0740   59.6380   15.4830 C.3   165  VAL165      0.1561
     57  C         16.1660   58.4030   15.4970 C.2   165  VAL165      0.2260
     58  O         15.2630   58.2350   14.6600 O.2   165  VAL165     -0.2867
     59  CB        16.3740   60.9060   16.0220 C.3   165  VAL165      0.0252
     60  CG1       16.0150   60.7380   17.5050 C.3   165  VAL165      0.0019
     61  CG2       17.2920   62.1210   15.8830 C.3   165  VAL165      0.0019
     62  N         21.2660   58.2380   16.8890 N.3   192  ILE192     -0.1231
     63  CA        21.0660   59.0640   18.0680 C.3   192  ILE192      0.1692
     64  C         19.9240   58.5510   18.9360 C.2   192  ILE192      0.2592
     65  O         18.8410   58.2790   18.4550 O.2   192  ILE192     -0.2718
     66  CB        20.7550   60.5170   17.6660 C.3   192  ILE192      0.0266
     67  CG1       21.8690   61.0950   16.7920 C.3   192  ILE192      0.0019
     68  CG2       20.4810   61.3740   18.9070 C.3   192  ILE192      0.0020
     69  CD1       21.3950   62.2670   15.8950 C.3   192  ILE192      0.0001
     70  N         20.1810   58.4090   20.2300 N.am  193  GLU193     -0.1966
     71  CA        19.1330   58.0230   21.1540 C.3   193  GLU193      0.1733
     72  C         18.0790   59.1280   21.2600 C.2   193  GLU193      0.2616
     73  O         18.4220   60.3190   21.3460 O.2   193  GLU193     -0.2715
     74  CB        19.7100   57.6840   22.5240 C.3   193  GLU193      0.0429
     75  CG        20.3340   56.3000   22.6330 C.3   193  GLU193      0.1163
     76  CD        20.7210   55.9710   24.0610 C.2   193  GLU193      0.3649
     77  OE1       20.7630   56.8960   24.9020 O.co2 193  GLU193     -0.2457
     78  OE2       20.9870   54.7850   24.3530 O.co2 193  GLU193     -0.2457
     79  N         16.8010   58.7190   21.2500 N.am  194  PHE194     -0.1960
     80  CA        15.6550   59.6550   21.3160 C.3   194  PHE194      0.1771
     81  C         15.5410   60.2250   22.7210 C.2   194  PHE194      0.2619
     82  O         15.6080   59.5110   23.7060 O.2   194  PHE194     -0.2715
     83  CB        14.3440   58.9680   20.8540 C.3   194  PHE194      0.0574
     84  CG        13.1120   59.8480   20.9270 C.ar  194  PHE194     -0.0200
     85  CD1       12.9140   60.8910   20.0140 C.ar  194  PHE194     -0.0042
     86  CD2       12.1260   59.6080   21.8920 C.ar  194  PHE194     -0.0042
     87  CE1       11.7720   61.6950   20.0810 C.ar  194  PHE194     -0.0003
     88  CE2       10.9840   60.4140   21.9630 C.ar  194  PHE194     -0.0003
     89  CZ        10.8100   61.4610   21.0490 C.ar  194  PHE194     -0.0000
     90  N         15.4220   61.5340   22.8080 N.am  195  MET195     -0.1977
     91  CA        15.3770   62.1940   24.1040 C.3   195  MET195      0.1605
     92  C         13.9780   62.6320   24.4210 C.2   195  MET195      0.2287
     93  O         13.3950   63.4750   23.7180 O.2   195  MET195     -0.2864
     94  CB        16.3070   63.3920   24.1290 C.3   195  MET195      0.0413
     95  CG        17.7320   63.0130   24.3650 C.3   195  MET195      0.0598
     96  SD        18.8170   64.4540   24.4190 S.3   195  MET195     -0.1393
     97  CE        18.7480   65.0330   22.7390 C.3   195  MET195      0.0692
@<TRIPOS>BOND
     1    36    35    2
     2    35    34    1
     3    33    34    1
     4    39    40    1
     5    28    29    2
     6    28    27    1
     7    34    37    1
     8    41    40    1
     9    41    42    2
    10    26    27    1
    11    27    30    1
    12    40    43    1
    13    37    38    1
    14    47    48    1
    15    43    44    1
    16    50    49    2
    17    30    32    1
    18    30    31    1
    19    49    48    1
    20    48    51    1
    21    22    21    2
    22    45    44   ar
    23    44    46   ar
    24    19    20    1
    25    51    52    1
    26    21    20    1
    27    20    23    1
    28    53    52    2
    29    52    54   am
    30    23    24    1
    31    23    25    1
    32    12    11    1
    33    55    56    1
    34    58    57    2
    35    11    10   ar
    36    11     9   ar
    37    10     8   ar
    38    56    57    1
    39    56    59    1
    40    18    17    1
    41    17    14    1
    42     9     7   ar
    43    61    59    1
    44    69    67    1
    45     8     6   ar
    46    59    60    1
    47    15    14    1
    48    15    16    2
    49     1     2    1
    50    14    13    1
    51    13     3   am
    52     7     6   ar
    53    67    66    1
    54    62    63    1
    55     6     5    1
    56    66    63    1
    57    66    68    1
    58     3     2    1
    59     3     4    2
    60     2     5    1
    61    63    64    1
    62    65    64    2
    63    64    70   am
    64    85    87   ar
    65    85    84   ar
    66    87    89   ar
    67    70    71    1
    68    83    84    1
    69    83    80    1
    70    84    86   ar
    71    89    88   ar
    72    71    72    1
    73    71    74    1
    74    79    72   am
    75    79    80    1
    76    72    73    2
    77    80    81    1
    78    86    88   ar
    79    74    75    1
    80    75    76    1
    81    81    90   am
    82    81    82    2
    83    97    96    1
    84    90    91    1
    85    93    92    2
    86    76    78   ar
    87    76    77   ar
    88    91    94    1
    89    91    92    1
    90    94    95    1
    91    95    96    1
