@<TRIPOS>MOLECULE
tmp/2fb3A01.pdb
 207 188 0 0 0
SMALL
GASTEIGER

@<TRIPOS>ATOM
      1  N         27.0120   77.0210   18.4260 N.3    15  ARG15      -0.1245
      2  CA        25.8420   76.7520   17.5900 C.3    15  ARG15       0.1563
      3  C         25.0810   78.0210   17.2830 C.2    15  ARG15       0.2260
      4  O         24.5800   78.7360   18.1800 O.2    15  ARG15      -0.2867
      5  CB        24.9830   75.7280   18.2740 C.3    15  ARG15       0.0307
      6  CG        25.9310   74.6410   18.8660 C.3    15  ARG15       0.0489
      7  CD        26.1220   73.5410   17.8600 C.3    15  ARG15       0.2205
      8  NE        27.0730   72.5040   18.2220 N.pl3  15  ARG15      -0.0865
      9  CZ        26.7650   71.2140   18.2160 C.cat  15  ARG15       0.5346
     10  NH1       25.5140   70.8430   17.8770 N.pl3  15  ARG15       0.1354
     11  NH2       27.7020   70.2970   18.5290 N.pl3  15  ARG15       0.1354
     12  N         35.0320   75.9070   16.6120 N.3    67  LYS67      -0.1245
     13  CA        34.0420   75.1580   15.8690 C.3    67  LYS67       0.1561
     14  C         32.7110   75.9500   15.8280 C.2    67  LYS67       0.2260
     15  O         32.1770   76.3400   16.8690 O.2    67  LYS67      -0.2867
     16  CB        33.7820   73.8750   16.6350 C.3    67  LYS67       0.0271
     17  CG        33.8790   72.6630   15.8000 C.3    67  LYS67       0.0035
     18  CD        32.4890   72.0530   15.4900 C.3    67  LYS67       0.0206
     19  CE        32.2790   70.7550   16.3330 C.3    67  LYS67       0.1093
     20  NZ        30.7870   70.5490   16.3780 N.3    67  LYS67      -0.1314
     21  N         28.7670   75.6540   14.3850 N.3    69  ARG69      -0.1245
     22  CA        27.7390   74.9230   13.6580 C.3    69  ARG69       0.1563
     23  C         26.5200   75.7610   13.2950 C.2    69  ARG69       0.2260
     24  O         25.9660   76.4680   14.1170 O.2    69  ARG69      -0.2867
     25  CB        27.3380   73.7100   14.4540 C.3    69  ARG69       0.0307
     26  CG        26.2280   73.0040   13.7870 C.3    69  ARG69       0.0489
     27  CD        26.4400   71.5320   14.1710 C.3    69  ARG69       0.2205
     28  NE        27.7670   71.0690   13.8030 N.pl3  69  ARG69      -0.0865
     29  CZ        28.0140   70.5520   12.6010 C.cat  69  ARG69       0.5346
     30  NH1       27.0230   70.4670   11.6890 N.pl3  69  ARG69       0.1354
     31  NH2       29.2490   70.1720   12.3020 N.pl3  69  ARG69       0.1354
     32  N         22.7310   76.0340   12.1430 N.3    71  THR71      -0.1218
     33  CA        21.5410   75.2540   12.3210 C.3    71  THR71       0.1862
     34  C         20.3100   76.1750   12.2320 C.2    71  THR71       0.2287
     35  O         20.3900   77.3390   11.7920 O.2    71  THR71      -0.2866
     36  CB        21.6510   74.3650   13.6140 C.3    71  THR71       0.1770
     37  OG1       20.4620   73.6140   13.7080 O.3    71  THR71      -0.2211
     38  CG2       21.7280   75.1990   14.9220 C.3    71  THR71       0.0375
     39  N         24.1610   71.6940    9.7080 N.3   100  THR100     -0.1218
     40  CA        23.1320   70.6760    9.9740 C.3   100  THR100      0.1862
     41  C         21.8640   71.0050    9.2090 C.2   100  THR100      0.2287
     42  O         21.3160   72.1040    9.3250 O.2   100  THR100     -0.2866
     43  CB        22.8490   70.5310   11.4660 C.3   100  THR100      0.1770
     44  OG1       24.1020   70.5370   12.1600 O.3   100  THR100     -0.2211
     45  CG2       22.1280   69.1860   11.7610 C.3   100  THR100      0.0375
     46  N         26.2440   67.7860    8.1280 N.3   122  ASN122     -0.1240
     47  CA        25.4880   66.6170    8.6000 C.3   122  ASN122      0.1653
     48  C         24.0530   66.7400    8.1110 C.2   122  ASN122      0.2266
     49  O         23.4200   67.7830    8.2970 O.2   122  ASN122     -0.2867
     50  CB        25.4720   66.4270   10.0960 C.3   122  ASN122      0.1155
     51  CG        26.7550   66.7450   10.7300 C.2   122  ASN122      0.2627
     52  OD1       27.5360   65.8530   11.0920 O.2   122  ASN122     -0.2716
     53  ND2       27.0140   68.0360   10.9010 N.am  122  ASN122     -0.0877
     54  N         28.0530   63.6340    6.5420 N.3   161  LYS161     -0.1245
     55  CA        27.6440   62.6140    7.5190 C.3   161  LYS161      0.1561
     56  C         26.1240   62.6390    7.6790 C.2   161  LYS161      0.2260
     57  O         25.4790   63.6720    7.4500 O.2   161  LYS161     -0.2867
     58  CB        28.2190   62.8700    8.9140 C.3   161  LYS161      0.0271
     59  CG        29.7190   63.1140    9.0570 C.3   161  LYS161      0.0035
     60  CD        29.8890   63.6820   10.4480 C.3   161  LYS161      0.0206
     61  CE        31.2110   64.2960   10.7200 C.3   161  LYS161      0.1093
     62  NZ        31.0600   65.2090   11.9100 N.3   161  LYS161     -0.1314
     63  N         22.6770   61.8260   10.2570 N.3   163  ASN163     -0.1240
     64  CA        22.1840   61.7540   11.6340 C.3   163  ASN163      0.1653
     65  C         20.8220   61.0960   11.6200 C.2   163  ASN163      0.2266
     66  O         19.9170   61.5520   10.9200 O.2   163  ASN163     -0.2867
     67  CB        21.9660   63.1810   12.1970 C.3   163  ASN163      0.1155
     68  CG        23.2600   63.9240   12.4310 C.2   163  ASN163      0.2627
     69  OD1       23.3090   65.1620   12.3720 O.2   163  ASN163     -0.2716
     70  ND2       24.3090   63.1890   12.7080 N.am  163  ASN163     -0.0877
     71  N         17.6630   59.7950   14.1560 N.3   165  VAL165     -0.1245
     72  CA        17.0740   59.6380   15.4830 C.3   165  VAL165      0.1561
     73  C         16.1660   58.4030   15.4970 C.2   165  VAL165      0.2260
     74  O         15.2630   58.2350   14.6600 O.2   165  VAL165     -0.2867
     75  CB        16.3740   60.9060   16.0220 C.3   165  VAL165      0.0252
     76  CG1       16.0150   60.7380   17.5050 C.3   165  VAL165      0.0019
     77  CG2       17.2920   62.1210   15.8830 C.3   165  VAL165      0.0019
     78  N         25.4580   58.2890   11.8180 N.3   190  ARG190     -0.1245
     79  CA        25.4420   58.2220   13.2860 C.3   190  ARG190      0.1563
     80  C         24.0120   58.0630   13.7490 C.2   190  ARG190      0.2260
     81  O         23.1390   58.7550   13.2180 O.2   190  ARG190     -0.2867
     82  CB        26.0080   59.5000   13.9030 C.3   190  ARG190      0.0307
     83  CG        27.4160   59.7810   13.5210 C.3   190  ARG190      0.0489
     84  CD        27.4510   61.1860   12.9400 C.3   190  ARG190      0.2205
     85  NE        28.4140   61.9480   13.7180 N.pl3 190  ARG190     -0.0865
     86  CZ        28.2970   63.2440   13.9730 C.cat 190  ARG190      0.5346
     87  NH1       27.2540   63.9130   13.5020 N.pl3 190  ARG190      0.1354
     88  NH2       29.2250   63.8530   14.7260 N.pl3 190  ARG190      0.1354
     89  N         21.2660   58.2380   16.8890 N.3   192  ILE192     -0.1245
     90  CA        21.0660   59.0640   18.0680 C.3   192  ILE192      0.1561
     91  C         19.9240   58.5510   18.9360 C.2   192  ILE192      0.2260
     92  O         18.8410   58.2790   18.4550 O.2   192  ILE192     -0.2867
     93  CB        20.7550   60.5170   17.6660 C.3   192  ILE192      0.0252
     94  CG1       21.8690   61.0950   16.7920 C.3   192  ILE192      0.0019
     95  CG2       20.4810   61.3740   18.9070 C.3   192  ILE192      0.0019
     96  CD1       21.3950   62.2670   15.8950 C.3   192  ILE192      0.0001
     97  N         15.4220   61.5340   22.8080 N.3   195  MET195     -0.1245
     98  CA        15.3770   62.1940   24.1040 C.3   195  MET195      0.1570
     99  C         13.9780   62.6320   24.4210 C.2   195  MET195      0.2261
    100  O         13.3950   63.4750   23.7180 O.2   195  MET195     -0.2867
    101  CB        16.3070   63.3920   24.1290 C.3   195  MET195      0.0387
    102  CG        17.7320   63.0130   24.3650 C.3   195  MET195      0.0595
    103  SD        18.8170   64.4540   24.4190 S.3   195  MET195     -0.1393
    104  CE        18.7480   65.0330   22.7390 C.3   195  MET195      0.0692
    105  N         38.9910   61.6840   20.5750 N.3   231  TYR231     -0.1241
    106  CA        39.3640   62.5100   21.7310 C.3   231  TYR231      0.1605
    107  C         38.6140   62.1180   23.0190 C.2   231  TYR231      0.2264
    108  O         37.4640   61.6360   22.9590 O.2   231  TYR231     -0.2867
    109  CB        39.1920   64.0160   21.3950 C.3   231  TYR231      0.0534
    110  CG        37.8020   64.4260   20.9270 C.ar  231  TYR231     -0.0201
    111  CD1       37.0290   65.3120   21.6810 C.ar  231  TYR231     -0.0009
    112  CD2       37.2630   63.9350   19.7270 C.ar  231  TYR231     -0.0009
    113  CE1       35.7240   65.6860   21.2630 C.ar  231  TYR231      0.0417
    114  CE2       35.9670   64.2980   19.3000 C.ar  231  TYR231      0.0417
    115  CZ        35.2010   65.1830   20.0710 C.ar  231  TYR231      0.1957
    116  OH        33.9320   65.5550   19.6610 O.3   231  TYR231     -0.2866
    117  N         31.8940   62.6510   21.6130 N.3   235  VAL235     -0.1245
    118  CA        30.4540   62.4740   21.2660 C.3   235  VAL235      0.1561
    119  C         30.0300   60.9790   21.1660 C.2   235  VAL235      0.2260
    120  O         29.5590   60.3850   22.1540 O.2   235  VAL235     -0.2867
    121  CB        30.0340   63.2900   19.9560 C.3   235  VAL235      0.0252
    122  CG1       30.3460   64.7760   20.1040 C.3   235  VAL235      0.0019
    123  CG2       30.6950   62.7360   18.6710 C.3   235  VAL235      0.0019
    124  N         25.2900   57.6100   19.1710 N.3   251  ILE251     -0.1245
    125  CA        25.1270   58.6850   20.1740 C.3   251  ILE251      0.1561
    126  C         24.0980   58.3890   21.3050 C.2   251  ILE251      0.2260
    127  O         22.8720   58.2910   21.1200 O.2   251  ILE251     -0.2867
    128  CB        24.8540   60.0140   19.5080 C.3   251  ILE251      0.0252
    129  CG1       25.9550   60.3140   18.4840 C.3   251  ILE251      0.0019
    130  CG2       24.7690   61.1110   20.5440 C.3   251  ILE251      0.0019
    131  CD1       25.7250   61.6020   17.6640 C.3   251  ILE251      0.0001
    132  N         22.7000   59.6010   24.1970 N.3   253  SER253     -0.1217
    133  CA        22.2940   60.8160   24.9250 C.3   253  SER253      0.1889
    134  C         21.4900   60.5710   26.1890 C.2   253  SER253      0.2288
    135  O         21.5330   61.3640   27.1210 O.2   253  SER253     -0.2866
    136  CB        21.4980   61.7580   24.0090 C.3   253  SER253      0.2089
    137  OG        20.8420   61.0600   22.9410 O.3   253  SER253     -0.2183
    138  N         26.5180   63.2270   28.3630 N.3   258  PHE258     -0.1227
    139  CA        27.8780   63.7650   28.2820 C.3   258  PHE258      0.1736
    140  C         28.1060   65.1950   28.8560 C.2   258  PHE258      0.2595
    141  O         29.0680   65.8610   28.4780 O.2   258  PHE258     -0.2718
    142  CB        28.4640   63.5900   26.8460 C.3   258  PHE258      0.0547
    143  CG        27.4280   63.5780   25.7140 C.ar  258  PHE258     -0.0202
    144  CD1       27.0610   64.7740   25.0540 C.ar  258  PHE258     -0.0042
    145  CD2       26.8650   62.3630   25.2690 C.ar  258  PHE258     -0.0042
    146  CE1       26.1060   64.7700   23.9930 C.ar  258  PHE258     -0.0003
    147  CE2       25.9160   62.3370   24.2030 C.ar  258  PHE258     -0.0003
    148  CZ        25.5380   63.5580   23.5610 C.ar  258  PHE258     -0.0000
    149  N         27.2620   65.6260   29.7970 N.am  259  CYS259     -0.1970
    150  CA        27.2750   67.0220   30.2530 C.3   259  CYS259      0.1712
    151  C         28.6190   67.5040   30.7600 C.2   259  CYS259      0.2296
    152  O         29.0170   68.6120   30.4490 O.2   259  CYS259     -0.2864
    153  CB        26.1790   67.3180   31.2750 C.3   259  CYS259      0.0983
    154  SG        24.4750   67.0870   30.6630 S.3   259  CYS259     -0.0798
    155  N         30.6470   68.8320   28.0130 N.3   262  CYS262     -0.1235
    156  CA        29.8810   69.7210   27.1020 C.3   262  CYS262      0.1677
    157  C         30.4880   71.1060   27.0200 C.2   262  CYS262      0.2270
    158  O         30.6310   71.8010   28.0050 O.2   262  CYS262     -0.2867
    159  CB        28.4330   69.8590   27.5200 C.3   262  CYS262      0.0956
    160  SG        27.4170   70.8250   26.3270 S.3   262  CYS262     -0.0801
    161  N         29.5960   73.5450   24.4290 N.3   264  ARG264     -0.1245
    162  CA        28.8900   74.3140   23.4070 C.3   264  ARG264      0.1563
    163  C         28.0950   75.4800   23.9330 C.2   264  ARG264      0.2260
    164  O         27.5180   75.4020   24.9810 O.2   264  ARG264     -0.2867
    165  CB        28.0480   73.4440   22.4650 C.3   264  ARG264      0.0307
    166  CG        27.3270   72.3260   23.1120 C.3   264  ARG264      0.0489
    167  CD        27.5410   71.0660   22.2780 C.3   264  ARG264      0.2205
    168  NE        28.8840   70.5510   22.5090 N.pl3 264  ARG264     -0.0865
    169  CZ        29.1930   69.4670   23.2250 C.cat 264  ARG264      0.5346
    170  NH1       28.2390   68.7170   23.8180 N.pl3 264  ARG264      0.1354
    171  NH2       30.4810   69.1380   23.3540 N.pl3 264  ARG264      0.1354
    172  N         25.1860   78.4120   22.5510 N.3   266  ARG266     -0.1245
    173  CA        24.2100   78.5660   21.4490 C.3   266  ARG266      0.1563
    174  C         23.6630   79.9630   21.4290 C.2   266  ARG266      0.2260
    175  O         23.4040   80.5570   22.4740 O.2   266  ARG266     -0.2867
    176  CB        22.9790   77.6810   21.5990 C.3   266  ARG266      0.0307
    177  CG        23.1650   76.3060   22.1060 C.3   266  ARG266      0.0489
    178  CD        21.7940   75.4540   21.8690 C.3   266  ARG266      0.2205
    179  NE        22.1600   74.0610   21.4850 N.pl3 266  ARG266     -0.0865
    180  CZ        23.1690   73.3440   22.0350 C.cat 266  ARG266      0.5346
    181  NH1       23.8850   73.8290   23.0720 N.pl3 266  ARG266      0.1354
    182  NH2       23.4290   72.1110   21.5870 N.pl3 266  ARG266      0.1354
    183  N         21.0980   73.0560   25.0410 N.3   277  LEU277     -0.1231
    184  CA        19.9970   72.6700   24.1440 C.3   277  LEU277      0.1693
    185  C         18.5950   72.8050   24.7120 C.2   277  LEU277      0.2592
    186  O         17.6870   73.1720   24.0030 O.2   277  LEU277     -0.2718
    187  CB        20.1620   71.2280   23.7180 C.3   277  LEU277      0.0284
    188  CG        20.6950   70.7590   22.3820 C.3   277  LEU277      0.0019
    189  CD1       20.2830   69.2950   22.2470 C.3   277  LEU277      0.0001
    190  CD2       20.1710   71.5780   21.1570 C.3   277  LEU277      0.0001
    191  N         18.4310   72.4230   25.9660 N.am  278  PHE278     -0.1976
    192  CA        17.1990   72.5520   26.7420 C.3   278  PHE278      0.1639
    193  C         17.2090   73.8860   27.4390 C.2   278  PHE278      0.2290
    194  O         18.2550   74.5040   27.5610 O.2   278  PHE278     -0.2864
    195  CB        17.1520   71.4180   27.7360 C.3   278  PHE278      0.0560
    196  CG        17.2550   70.0860   27.0730 C.ar  278  PHE278     -0.0200
    197  CD1       18.5000   69.5540   26.7450 C.ar  278  PHE278     -0.0042
    198  CD2       16.0980   69.4040   26.6750 C.ar  278  PHE278     -0.0042
    199  CE1       18.6040   68.3460   26.0920 C.ar  278  PHE278     -0.0003
    200  CE2       16.1790   68.1660   26.0260 C.ar  278  PHE278     -0.0003
    201  CZ        17.4350   67.6340   25.7370 C.ar  278  PHE278     -0.0000
    202  N         20.8540   66.9040   30.7500 N.3   315  SER315     -0.1217
    203  CA        20.7060   65.4720   30.6060 C.3   315  SER315      0.1889
    204  C         21.1290   64.7180   31.8570 C.2   315  SER315      0.2288
    205  O         20.6070   63.6710   32.1030 O.2   315  SER315     -0.2866
    206  CB        21.4220   64.9040   29.3890 C.3   315  SER315      0.2089
    207  OG        21.0370   65.5770   28.2060 O.3   315  SER315     -0.2183
@<TRIPOS>BOND
     1    54    55    1
     2    57    56    2
     3    55    56    1
     4    55    58    1
     5    48    49    2
     6    48    47    1
     7    46    47    1
     8    47    50    1
     9    58    59    1
    10    59    60    1
    11    41    42    2
    12    41    40    1
    13    39    40    1
    14    40    43    1
    15    50    51    1
    16    63    64    1
    17    60    61    1
    18    61    62    1
    19    51    53   am
    20    51    52    2
    21    66    65    2
    22    43    45    1
    23    43    44    1
    24    65    64    1
    25    64    67    1
    26    30    29    1
    27    35    34    2
    28    78    79    1
    29    32    33    1
    30    67    68    1
    31    34    33    1
    32    31    29    1
    33    33    36    1
    34    69    68    2
    35    68    70   am
    36    29    28    2
    37    84    83    1
    38    84    85    1
    39    81    80    2
    40    79    80    1
    41    79    82    1
    42    23    22    1
    43    23    24    2
    44    87    86    1
    45    83    82    1
    46    36    37    1
    47    36    38    1
    48    22    21    1
    49    22    25    1
    50    85    86    2
    51    26    27    1
    52    26    25    1
    53    28    27    1
    54    86    88    1
    55    71    72    1
    56    74    73    2
    57    72    73    1
    58    72    75    1
    59    18    17    1
    60    18    19    1
    61    17    16    1
    62    14    13    1
    63    14    15    2
    64    13    12    1
    65    13    16    1
    66    77    75    1
    67    96    94    1
    68    75    76    1
    69    19    20    1
    70    94    93    1
    71    89    90    1
    72     3     2    1
    73     3     4    2
    74     2     5    1
    75     2     1    1
    76   131   129    1
    77    93    90    1
    78    93    95    1
    79     7     8    1
    80     7     6    1
    81    10     9    1
    82    90    91    1
    83     9     8    2
    84     9    11    1
    85     5     6    1
    86    92    91    2
    87   129   128    1
    88   123   121    1
    89   124   125    1
    90   114   112   ar
    91   114   115   ar
    92   128   125    1
    93   128   130    1
    94   116   115    1
    95   112   110   ar
    96   121   122    1
    97   121   118    1
    98   115   113   ar
    99   125   126    1
   100   105   106    1
   101   110   109    1
   102   110   111   ar
   103   127   126    2
   104   190   188    1
   105   119   118    1
   106   119   120    2
   107   113   111   ar
   108   118   117    1
   109   109   106    1
   110   174   173    1
   111   174   175    2
   112   173   176    1
   113   173   172    1
   114   179   178    1
   115   179   180    2
   116   182   180    1
   117   176   177    1
   118   106   107    1
   119   178   177    1
   120   180   181    1
   121   189   188    1
   122   167   168    1
   123   167   166    1
   124   188   187    1
   125   165   166    1
   126   165   162    1
   127   168   169    2
   128   104   103    1
   129    97    98    1
   130   137   136    1
   131   108   107    2
   132   169   171    1
   133   169   170    1
   134   162   163    1
   135   162   161    1
   136   148   146   ar
   137   148   147   ar
   138   187   184    1
   139   100    99    2
   140   163   164    2
   141   146   144   ar
   142   186   185    2
   143   136   133    1
   144    98   101    1
   145    98    99    1
   146   101   102    1
   147   184   185    1
   148   184   183    1
   149   132   133    1
   150   147   145   ar
   151   102   103    1
   152   185   191   am
   153   133   134    1
   154   144   143   ar
   155   145   143   ar
   156   143   142    1
   157   201   200   ar
   158   201   199   ar
   159   191   192    1
   160   200   198   ar
   161   199   197   ar
   162   134   135    2
   163   160   159    1
   164   198   196   ar
   165   192   193    1
   166   192   195    1
   167   197   196   ar
   168   142   139    1
   169   157   156    1
   170   157   158    2
   171   196   195    1
   172   156   159    1
   173   156   155    1
   174   193   194    2
   175   207   206    1
   176   139   138    1
   177   139   140    1
   178   141   140    2
   179   140   149   am
   180   206   203    1
   181   149   150    1
   182   150   151    1
   183   150   153    1
   184   152   151    2
   185   203   202    1
   186   203   204    1
   187   154   153    1
   188   204   205    2
