@<TRIPOS>MOLECULE
tmp/2fb3B01.pdb
 124 113 0 0 0
SMALL
GASTEIGER

@<TRIPOS>ATOM
      1  N         28.4700   54.1900   53.1990 N.3    14  ARG14      -0.1245
      2  CA        29.7240   53.4570   53.3370 C.3    14  ARG14       0.1563
      3  C         30.2130   53.7070   54.7180 C.2    14  ARG14       0.2260
      4  O         30.4360   54.8440   55.1060 O.2    14  ARG14      -0.2867
      5  CB        30.7620   53.9300   52.3400 C.3    14  ARG14       0.0307
      6  CG        32.1540   53.3740   52.6090 C.3    14  ARG14       0.0489
      7  CD        33.0970   53.7150   51.4330 C.3    14  ARG14       0.2205
      8  NE        33.6710   52.4660   50.9310 N.pl3  14  ARG14      -0.0865
      9  CZ        33.6300   52.0390   49.6660 C.cat  14  ARG14       0.5346
     10  NH1       33.0940   52.7870   48.7030 N.pl3  14  ARG14       0.1354
     11  NH2       34.1700   50.8500   49.3740 N.pl3  14  ARG14       0.1354
     12  N         21.0220   50.8620   51.6950 N.3    66  LYS66      -0.1245
     13  CA        22.1800   49.9890   51.6070 C.3    66  LYS66       0.1561
     14  C         23.3450   50.5410   52.3780 C.2    66  LYS66       0.2260
     15  O         23.5990   51.7430   52.3900 O.2    66  LYS66      -0.2867
     16  CB        22.5880   49.8480   50.1430 C.3    66  LYS66       0.0271
     17  CG        23.0560   48.4480   49.8070 C.3    66  LYS66       0.0035
     18  CD        23.4260   48.3560   48.3330 C.3    66  LYS66       0.0206
     19  CE        22.8530   47.0950   47.6960 C.3    66  LYS66       0.1093
     20  NZ        21.5640   47.4220   46.9680 N.3    66  LYS66      -0.1314
     21  N         27.5440   49.6340   53.2900 N.3    68  ARG68      -0.1245
     22  CA        28.7820   48.9440   52.9800 C.3    68  ARG68       0.1563
     23  C         29.7420   49.1340   54.1540 C.2    68  ARG68       0.2260
     24  O         30.0620   50.2770   54.4840 O.2    68  ARG68      -0.2867
     25  CB        29.3730   49.5500   51.7250 C.3    68  ARG68       0.0307
     26  CG        30.3120   48.6300   51.0030 C.3    68  ARG68       0.0489
     27  CD        29.6220   47.9550   49.8040 C.3    68  ARG68       0.2205
     28  NE        30.0120   46.5530   49.8510 N.pl3  68  ARG68      -0.0865
     29  CZ        29.2440   45.5290   49.4980 C.cat  68  ARG68       0.5346
     30  NH1       28.0150   45.7420   49.0320 N.pl3  68  ARG68       0.1354
     31  NH2       29.7220   44.2820   49.6260 N.pl3  68  ARG68       0.1354
     32  N         33.2140   44.9040   52.4470 N.3    99  THR99      -0.1218
     33  CA        34.3910   44.8170   51.5670 C.3    99  THR99       0.1862
     34  C         35.5770   44.3540   52.3990 C.2    99  THR99       0.2287
     35  O         35.9800   45.0340   53.3460 O.2    99  THR99      -0.2866
     36  CB        34.6600   46.1670   50.8720 C.3    99  THR99       0.1770
     37  OG1       33.4160   46.6630   50.3740 O.3    99  THR99      -0.2211
     38  CG2       35.6870   46.0590   49.6790 C.3    99  THR99       0.0375
     39  N         32.1480   41.4670   49.2270 N.3   121  ASN121     -0.1240
     40  CA        33.1170   41.7110   48.1300 C.3   121  ASN121      0.1653
     41  C         34.5490   41.4340   48.6570 C.2   121  ASN121      0.2266
     42  O         34.9610   42.0130   49.6730 O.2   121  ASN121     -0.2867
     43  CB        33.0570   43.1640   47.6430 C.3   121  ASN121      0.1155
     44  CG        31.7260   43.5270   46.9700 C.2   121  ASN121      0.2627
     45  OD1       30.8420   44.1090   47.5900 O.2   121  ASN121     -0.2716
     46  ND2       31.6050   43.2220   45.6770 N.am  121  ASN121     -0.0877
     47  N         31.7000   38.1300   45.8770 N.3   160  LYS160     -0.1245
     48  CA        32.1300   38.7950   44.6700 C.3   160  LYS160      0.1561
     49  C         33.5440   39.3540   44.8950 C.2   160  LYS160      0.2260
     50  O         33.9000   39.7310   46.0130 O.2   160  LYS160     -0.2867
     51  CB        31.1390   39.8860   44.2570 C.3   160  LYS160      0.0271
     52  CG        29.7700   39.3610   43.8500 C.3   160  LYS160      0.0035
     53  CD        28.7610   40.5040   43.7170 C.3   160  LYS160      0.0206
     54  CE        27.3130   39.9940   43.7040 C.3   160  LYS160      0.1093
     55  NZ        26.9420   39.4070   42.3880 N.3   160  LYS160     -0.1314
     56  N         36.7470   41.9650   43.7780 N.3   162  ASN162     -0.1240
     57  CA        37.1580   43.2630   43.2450 C.3   162  ASN162      0.1653
     58  C         38.6520   43.3220   42.8740 C.2   162  ASN162      0.2266
     59  O         39.5410   43.3420   43.7470 O.2   162  ASN162     -0.2867
     60  CB        36.8020   44.3570   44.2530 C.3   162  ASN162      0.1155
     61  CG        35.2960   44.5400   44.4100 C.2   162  ASN162      0.2627
     62  OD1       34.6180   45.0220   43.5060 O.2   162  ASN162     -0.2716
     63  ND2       34.7710   44.1630   45.5650 N.am  162  ASN162     -0.0877
     64  N         34.9760   41.0870   39.2170 N.3   189  ARG189     -0.1245
     65  CA        34.9550   42.4000   38.5670 C.3   189  ARG189      0.1563
     66  C         36.3220   43.0410   38.5450 C.2   189  ARG189      0.2260
     67  O         36.9680   43.1790   39.5910 O.2   189  ARG189     -0.2867
     68  CB        34.0040   43.3970   39.2150 C.3   189  ARG189      0.0307
     69  CG        32.7170   42.8710   39.7590 C.3   189  ARG189      0.0489
     70  CD        32.1200   43.9630   40.5780 C.3   189  ARG189      0.2205
     71  NE        31.1380   43.4620   41.5100 N.pl3 189  ARG189     -0.0865
     72  CZ        30.9110   44.0210   42.6860 C.cat 189  ARG189      0.5346
     73  NH1       31.6170   45.0860   43.0510 N.pl3 189  ARG189      0.1354
     74  NH2       29.9940   43.5100   43.5020 N.pl3 189  ARG189      0.1354
     75  N         19.5320   47.3870   36.8610 N.3   230  TYR230     -0.1241
     76  CA        18.8040   48.6570   36.9370 C.3   230  TYR230      0.1605
     77  C         19.4380   49.7260   36.0280 C.2   230  TYR230      0.2264
     78  O         20.4050   49.4470   35.3130 O.2   230  TYR230     -0.2867
     79  CB        18.7140   49.1380   38.3890 C.3   230  TYR230      0.0534
     80  CG        20.0510   49.2270   39.0780 C.ar  230  TYR230     -0.0201
     81  CD1       20.7340   50.4400   39.1580 C.ar  230  TYR230     -0.0009
     82  CD2       20.6440   48.0970   39.6340 C.ar  230  TYR230     -0.0009
     83  CE1       21.9750   50.5310   39.7770 C.ar  230  TYR230      0.0417
     84  CE2       21.8960   48.1720   40.2620 C.ar  230  TYR230      0.0417
     85  CZ        22.5550   49.3890   40.3390 C.ar  230  TYR230      0.1957
     86  OH        23.7950   49.4670   40.9580 O.3   230  TYR230     -0.2866
     87  N         26.6280   51.0000   37.7990 N.3   234  VAL234     -0.1245
     88  CA        28.0580   51.3010   37.6780 C.3   234  VAL234      0.1561
     89  C         28.7800   50.3260   36.7500 C.2   234  VAL234      0.2260
     90  O         29.1910   50.6900   35.6460 O.2   234  VAL234     -0.2867
     91  CB        28.7350   51.3750   39.0750 C.3   234  VAL234      0.0252
     92  CG1       28.3100   52.6480   39.7970 C.3   234  VAL234      0.0019
     93  CG2       28.4120   50.1230   39.9420 C.3   234  VAL234      0.0019
     94  N         28.2500   44.4270   32.8030 N.3   237  TYR237     -0.1241
     95  CA        28.2790   42.9870   33.0000 C.3   237  TYR237      0.1605
     96  C         28.2590   42.2090   31.7000 C.2   237  TYR237      0.2264
     97  O         27.5730   42.5780   30.7440 O.2   237  TYR237     -0.2867
     98  CB        27.1570   42.5370   33.9410 C.3   237  TYR237      0.0534
     99  CG        27.3240   43.0930   35.3420 C.ar  237  TYR237     -0.0201
    100  CD1       26.8290   44.3580   35.6700 C.ar  237  TYR237     -0.0009
    101  CD2       28.0020   42.3720   36.3330 C.ar  237  TYR237     -0.0009
    102  CE1       26.9910   44.8840   36.9510 C.ar  237  TYR237      0.0417
    103  CE2       28.1660   42.8910   37.6150 C.ar  237  TYR237      0.0417
    104  CZ        27.6560   44.1530   37.9120 C.ar  237  TYR237      0.1957
    105  OH        27.8010   44.7030   39.1650 O.3   237  TYR237     -0.2866
    106  N         34.2350   47.8370   35.7080 N.3   250  ILE250     -0.1245
    107  CA        33.9350   49.1870   36.2010 C.3   250  ILE250      0.1561
    108  C         34.8170   50.2720   35.5430 C.2   250  ILE250      0.2260
    109  O         36.0460   50.2290   35.6310 O.2   250  ILE250     -0.2867
    110  CB        34.0070   49.2410   37.7410 C.3   250  ILE250      0.0252
    111  CG1       33.2320   48.0570   38.3300 C.3   250  ILE250      0.0019
    112  CG2       33.4990   50.5890   38.2620 C.3   250  ILE250      0.0019
    113  CD1       32.9050   48.1620   39.7850 C.3   250  ILE250      0.0001
    114  N         26.1030   58.1750   47.3950 N.3   263  ARG263     -0.1245
    115  CA        26.8260   57.5600   48.5300 C.3   263  ARG263      0.1563
    116  C         27.4330   58.5590   49.5060 C.2   263  ARG263      0.2260
    117  O         28.2440   59.4550   49.1230 O.2   263  ARG263     -0.2867
    118  CB        27.8610   56.5250   48.0720 C.3   263  ARG263      0.0307
    119  CG        28.4370   55.6080   49.2590 C.3   263  ARG263      0.0489
    120  CD        29.3030   54.4110   48.7740 C.3   263  ARG263      0.2205
    121  NE        28.8920   53.9510   47.4300 N.pl3 263  ARG263     -0.0865
    122  CZ        29.4330   54.3770   46.2850 C.cat 263  ARG263      0.5346
    123  NH1       30.4260   55.2630   46.3180 N.pl3 263  ARG263      0.1354
    124  NH2       29.0000   53.9060   45.1140 N.pl3 263  ARG263      0.1354
@<TRIPOS>BOND
     1    97    96    2
     2    96    95    1
     3    94    95    1
     4    95    98    1
     5    98    99    1
     6    78    77    2
     7    99   100   ar
     8    99   101   ar
     9   108   109    2
    10   108   107    1
    11    90    89    2
    12   100   102   ar
    13   106   107    1
    14    77    76    1
    15   107   110    1
    16   101   103   ar
    17    89    88    1
    18    75    76    1
    19    76    79    1
    20   102   104   ar
    21   103   104   ar
    22    88    87    1
    23    88    91    1
    24   110   112    1
    25   110   111    1
    26   104   105    1
    27   111   113    1
    28    79    80    1
    29    66    65    1
    30    66    67    2
    31    65    68    1
    32    65    64    1
    33    91    92    1
    34    91    93    1
    35    80    81   ar
    36    80    82   ar
    37    81    83   ar
    38    68    69    1
    39    82    84   ar
    40    69    70    1
    41    83    85   ar
    42    84    85   ar
    43    85    86    1
    44    70    71    1
    45    71    72    2
    46    55    54    1
    47    72    73    1
    48    72    74    1
    49    58    57    1
    50    58    59    2
    51    57    56    1
    52    57    60    1
    53    62    61    2
    54    54    53    1
    55    53    52    1
    56    52    51    1
    57    60    61    1
    58    51    48    1
    59    61    63   am
    60    48    49    1
    61    48    47    1
    62    49    50    2
    63   124   122    1
    64    46    44   am
    65   122   123    1
    66   122   121    2
    67    20    19    1
    68    44    45    2
    69    44    43    1
    70   114   115    1
    71   121   120    1
    72    43    40    1
    73    19    18    1
    74   118   115    1
    75   118   119    1
    76    40    41    1
    77    40    39    1
    78    18    17    1
    79   115   116    1
    80    41    42    2
    81    10     9    1
    82   120   119    1
    83    30    29    1
    84   117   116    2
    85    11     9    1
    86    29    31    1
    87    29    28    2
    88     9     8    2
    89    38    36    1
    90    27    28    1
    91    27    26    1
    92    17    16    1
    93    16    13    1
    94    37    36    1
    95    36    33    1
    96     8     7    1
    97    26    25    1
    98     7     6    1
    99    33    34    1
   100    33    32    1
   101    13    12    1
   102    13    14    1
   103    25    22    1
   104     5     6    1
   105     5     2    1
   106    14    15    2
   107    34    35    2
   108    22    21    1
   109    22    23    1
   110     1     2    1
   111     2     3    1
   112    23    24    2
   113     3     4    2
