@<TRIPOS>MOLECULE
tmp/2fb3A00.pdb
 88 83 0 0 0
SMALL
GASTEIGER

@<TRIPOS>ATOM
      1  N         11.1540   76.1070    8.9780 N.3    22  CYS22      -0.1235
      2  CA        11.5890   74.8270    8.4160 C.3    22  CYS22       0.1677
      3  C         10.6790   74.4260    7.2850 C.2    22  CYS22       0.2270
      4  O          9.5250   74.8310    7.2420 O.2    22  CYS22      -0.2867
      5  CB        11.6210   73.8040    9.5420 C.3    22  CYS22       0.0956
      6  SG        12.3490   72.2800    9.1560 S.3    22  CYS22      -0.0801
      7  N          9.9940   71.2040    6.8470 N.3    24  PHE24      -0.1241
      8  CA         9.4870   69.9210    7.3400 C.3    24  PHE24       0.1605
      9  C          8.6330   70.2480    8.5850 C.2    24  PHE24       0.2264
     10  O          8.7130   71.3420    9.1630 O.2    24  PHE24      -0.2867
     11  CB        10.6220   68.9860    7.7820 C.3    24  PHE24       0.0534
     12  CG        11.3390   68.2450    6.6830 C.ar   24  PHE24      -0.0203
     13  CD1       12.1680   67.1890    7.0280 C.ar   24  PHE24      -0.0042
     14  CD2       11.1930   68.5580    5.3290 C.ar   24  PHE24      -0.0042
     15  CE1       12.8710   66.4390    6.0560 C.ar   24  PHE24      -0.0003
     16  CE2       11.9480   67.8180    4.3180 C.ar   24  PHE24      -0.0003
     17  CZ        12.7670   66.7340    4.7090 C.ar   24  PHE24      -0.0000
     18  N          8.4730   67.8600   11.4320 N.3    26  CYS26      -0.1235
     19  CA         8.7740   66.6280   12.1610 C.3    26  CYS26       0.1677
     20  C          8.0250   66.5490   13.4840 C.2    26  CYS26       0.2270
     21  O          7.9510   67.5340   14.1770 O.2    26  CYS26      -0.2867
     22  CB        10.2930   66.5230   12.3830 C.3    26  CYS26       0.0956
     23  SG        11.2220   66.4150   10.8110 S.3    26  CYS26      -0.0801
     24  N          9.7410   67.6570   16.7070 N.3    29  CYS29      -0.1235
     25  CA        10.4570   68.9170   16.6410 C.3    29  CYS29       0.1677
     26  C          9.5270   70.0860   16.3430 C.2    29  CYS29       0.2270
     27  O          9.4100   71.0240   17.1630 O.2    29  CYS29      -0.2867
     28  CB        11.5940   68.8100   15.6340 C.3    29  CYS29       0.0956
     29  SG        12.5910   70.3160   15.5120 S.3    29  CYS29      -0.0801
     30  N         22.7310   76.0340   12.1430 N.3    71  THR71      -0.1203
     31  CA        21.5410   75.2540   12.3210 C.3    71  THR71       0.1994
     32  C         20.3100   76.1750   12.2320 C.2    71  THR71       0.2618
     33  O         20.3900   77.3390   11.7920 O.2    71  THR71      -0.2717
     34  CB        21.6510   74.3650   13.6140 C.3    71  THR71       0.1784
     35  OG1       20.4620   73.6140   13.7080 O.3    71  THR71      -0.2211
     36  CG2       21.7280   75.1990   14.9220 C.3    71  THR71       0.0376
     37  N         19.1590   75.6600   12.6150 N.am   72  GLY72      -0.1942
     38  CA        17.9040   76.4320   12.5390 C.3    72  GLY72       0.2014
     39  C         16.9390   75.7060   13.4740 C.2    72  GLY72       0.2639
     40  O         17.3700   75.3240   14.5270 O.2    72  GLY72      -0.2714
     41  N         15.6830   75.4440   13.0830 N.am   73  GLY73      -0.1939
     42  CA        15.1810   75.7500   11.7550 C.3    73  GLY73       0.2014
     43  C         15.8400   74.8470   10.7130 C.2    73  GLY73       0.2639
     44  O         16.6330   73.9850   11.0560 O.2    73  GLY73      -0.2714
     45  N         15.4960   75.0400    9.4470 N.am   74  GLU74      -0.1963
     46  CA        16.2480   74.5000    8.3930 C.3    74  GLU74       0.1718
     47  C         17.0860   75.6830    7.8540 C.2    74  GLU74       0.2458
     48  O         16.5150   76.5500    7.2400 O.2    74  GLU74      -0.2730
     49  CB        15.3110   73.9040    7.3450 C.3    74  GLU74       0.0428
     50  CG        15.9880   73.4920    6.0350 C.3    74  GLU74       0.1163
     51  CD        17.2640   72.6520    6.2770 C.2    74  GLU74       0.3649
     52  OE1       18.2410   72.9070    5.5670 O.co2  74  GLU74      -0.2457
     53  OE2       17.3030   71.7790    7.1920 O.co2  74  GLU74      -0.2457
     54  N         18.4450   75.7000    8.0860 N.am   75  PRO75      -0.2727
     55  CA        19.3240   76.8090    7.7630 C.3    75  PRO75       0.1402
     56  C         19.3240   77.1540    6.2590 C.2    75  PRO75       0.2269
     57  O         19.5110   78.2940    5.9110 O.2    75  PRO75      -0.2865
     58  CB        20.7390   76.2730    8.2170 C.3    75  PRO75       0.0296
     59  CG        20.6130   74.8760    8.2630 C.3    75  PRO75       0.0237
     60  CD        19.2270   74.5840    8.6900 C.3    75  PRO75       0.0939
     61  N         24.1610   71.6940    9.7080 N.3   100  THR100     -0.1203
     62  CA        23.1320   70.6760    9.9740 C.3   100  THR100      0.1994
     63  C         21.8640   71.0050    9.2090 C.2   100  THR100      0.2619
     64  O         21.3160   72.1040    9.3250 O.2   100  THR100     -0.2717
     65  CB        22.8490   70.5310   11.4660 C.3   100  THR100      0.1784
     66  OG1       24.1020   70.5370   12.1600 O.3   100  THR100     -0.2211
     67  CG2       22.1280   69.1860   11.7610 C.3   100  THR100      0.0376
     68  N         21.4730   70.0840    8.3390 N.am  101  THR101     -0.1938
     69  CA        20.3840   70.2910    7.4290 C.3   101  THR101      0.2028
     70  C         19.6060   68.9810    7.1630 C.2   101  THR101      0.2642
     71  O         20.1440   67.8760    7.3130 O.2   101  THR101     -0.2714
     72  CB        20.8780   70.9420    6.1100 C.3   101  THR101      0.1808
     73  OG1       19.7830   71.0250    5.2070 O.3   101  THR101     -0.2208
     74  CG2       21.9810   70.1140    5.4120 C.3   101  THR101      0.0379
     75  N         18.3490   69.1210    6.7390 N.am  102  ASN102     -0.1971
     76  CA        17.5240   68.0100    6.3490 C.3   102  ASN102      0.1688
     77  C         17.8750   67.6120    4.9170 C.2   102  ASN102      0.2292
     78  O         17.4250   66.5770    4.4070 O.2   102  ASN102     -0.2864
     79  CB        16.0110   68.3120    6.5500 C.3   102  ASN102      0.1181
     80  CG        15.4760   69.5440    5.7280 C.2   102  ASN102      0.2629
     81  OD1       15.9100   69.8220    4.6220 O.2   102  ASN102     -0.2716
     82  ND2       14.4780   70.2190    6.2720 N.am  102  ASN102     -0.0877
     83  N         20.2870   65.2810    8.5400 N.3   124  SER124     -0.1217
     84  CA        19.3270   64.4430    9.2860 C.3   124  SER124      0.1889
     85  C         18.4490   63.6270    8.3030 C.2   124  SER124      0.2288
     86  O         17.9110   64.1790    7.3560 O.2   124  SER124     -0.2866
     87  CB        18.4620   65.3250   10.1420 C.3   124  SER124      0.2089
     88  OG        19.2750   66.2140   10.8980 O.3   124  SER124     -0.2183
@<TRIPOS>BOND
     1    16    17   ar
     2    16    14   ar
     3    78    77    2
     4    81    80    2
     5    17    15   ar
     6    77    76    1
     7    73    72    1
     8    14    12   ar
     9    74    72    1
    10    52    51   ar
    11    80    82   am
    12    80    79    1
    13    57    56    2
    14    50    51    1
    15    50    49    1
    16    15    13   ar
    17    72    69    1
    18    56    55    1
    19    51    53   ar
    20    76    79    1
    21    76    75    1
    22    12    13   ar
    23    12    11    1
    24    75    70   am
    25     7     8    1
    26    70    71    2
    27    70    69    1
    28    48    47    2
    29     4     3    2
    30     3     2    1
    31     8    11    1
    32     8     9    1
    33    49    46    1
    34    86    85    2
    35    69    68    1
    36    55    54    1
    37    55    58    1
    38    47    54   am
    39    47    46    1
    40    54    60    1
    41    58    59    1
    42    59    60    1
    43    85    84    1
    44    68    63   am
    45    46    45    1
    46     2     1    1
    47     2     5    1
    48    83    84    1
    49     9    10    2
    50     6     5    1
    51    63    64    2
    52    63    62    1
    53    84    87    1
    54    45    43   am
    55    61    62    1
    56    62    65    1
    57    87    88    1
    58    43    44    2
    59    43    42    1
    60    23    22    1
    61    18    19    1
    62    65    67    1
    63    65    66    1
    64    42    41    1
    65    33    32    2
    66    30    31    1
    67    19    22    1
    68    19    20    1
    69    32    31    1
    70    32    37   am
    71    31    34    1
    72    38    37    1
    73    38    39    1
    74    41    39   am
    75    39    40    2
    76    20    21    2
    77    34    35    1
    78    34    36    1
    79    29    28    1
    80    28    25    1
    81    26    25    1
    82    26    27    2
    83    25    24    1
