@<TRIPOS>MOLECULE
tmp/2fb8B00.pdb
 198 188 0 0 0
SMALL
GASTEIGER

@<TRIPOS>ATOM
      1  N        -15.4510    3.3690  -13.8530 N.3    15  ILE15      -0.1231
      2  CA       -14.7070    4.0280  -12.7770 C.3    15  ILE15       0.1692
      3  C        -14.0010    2.9690  -11.9440 C.2    15  ILE15       0.2593
      4  O        -12.8070    3.1150  -11.6010 O.2    15  ILE15      -0.2718
      5  CB       -15.6180    4.8690  -11.8580 C.3    15  ILE15       0.0266
      6  CG1      -16.4770    5.8260  -12.6820 C.3    15  ILE15       0.0019
      7  CG2      -14.8110    5.5810  -10.8000 C.3    15  ILE15       0.0020
      8  CD1      -15.7010    6.7940  -13.5260 C.3    15  ILE15       0.0001
      9  N        -14.7270    1.8940  -11.6240 N.am   16  GLY16      -0.1942
     10  CA       -14.1430    0.8590  -10.7830 C.3    16  GLY16       0.2014
     11  C        -15.1300   -0.0090  -10.0580 C.2    16  GLY16       0.2640
     12  O        -16.3180   -0.0560  -10.3990 O.2    16  GLY16      -0.2714
     13  N        -14.6350   -0.6970   -9.0460 N.am   17  SER17      -0.1935
     14  CA       -15.4290   -1.7040   -8.4100 C.3    17  SER17       0.2055
     15  C        -16.2580   -1.1150   -7.2580 C.2    17  SER17       0.2643
     16  O        -15.8390   -0.1690   -6.6170 O.2    17  SER17      -0.2714
     17  CB       -14.5570   -2.8930   -7.9990 C.3    17  SER17       0.2130
     18  OG       -14.0080   -3.5390   -9.1340 O.3    17  SER17      -0.2179
     19  N        -17.4420   -1.6860   -7.0230 N.am   18  GLY18      -0.1954
     20  CA       -18.3810   -1.1860   -6.0350 C.3    18  GLY18       0.1869
     21  C        -18.8520   -2.1190   -4.9310 C.2    18  GLY18       0.2309
     22  O        -18.8900   -1.7250   -3.8030 O.2    18  GLY18      -0.2863
     23  N        -18.7220    0.2620  -11.2330 N.3    23  VAL23      -0.1245
     24  CA       -19.1880    1.6510  -11.3330 C.3    23  VAL23       0.1561
     25  C        -18.7490    2.3110  -12.6340 C.2    23  VAL23       0.2260
     26  O        -17.5610    2.2490  -12.9710 O.2    23  VAL23      -0.2867
     27  CB       -18.5940    2.4630  -10.2070 C.3    23  VAL23       0.0252
     28  CG1      -18.9290    3.9420  -10.3800 C.3    23  VAL23       0.0019
     29  CG2      -19.0790    1.9340   -8.8980 C.3    23  VAL23       0.0019
     30  N        -24.1800    8.3260  -12.0180 N.3    33  ALA33      -0.1245
     31  CA       -23.2720    7.2760  -11.7510 C.3    33  ALA33       0.1562
     32  C        -24.1480    6.0530  -11.7420 C.2    33  ALA33       0.2260
     33  O        -25.2540    6.0850  -11.2110 O.2    33  ALA33      -0.2867
     34  CB       -22.5970    7.5020  -10.4310 C.3    33  ALA33       0.0290
     35  N        -24.0530    1.7540  -11.2800 N.3    35  LYS35      -0.1245
     36  CA       -23.3480    0.5620  -10.7880 C.3    35  LYS35       0.1561
     37  C        -24.0350   -0.6900  -11.2660 C.2    35  LYS35       0.2260
     38  O        -25.2180   -0.8670  -10.9620 O.2    35  LYS35      -0.2867
     39  CB       -23.3180    0.5340   -9.2480 C.3    35  LYS35       0.0271
     40  CG       -23.0370   -0.8700   -8.6340 C.3    35  LYS35       0.0035
     41  CD       -22.4300   -0.8670   -7.2180 C.3    35  LYS35       0.0206
     42  CE       -23.4410   -1.3360   -6.2050 C.3    35  LYS35       0.1093
     43  NZ       -22.9000   -2.2700   -5.1520 N.3    35  LYS35      -0.1314
     44  N        -30.0200   -4.1070   -1.8860 N.3    53  GLU53      -0.1245
     45  CA       -29.5510   -2.7600   -1.9890 C.3    53  GLU53       0.1567
     46  C        -30.7410   -1.8700   -2.3320 C.2    53  GLU53       0.2260
     47  O        -31.1190   -0.9810   -1.5470 O.2    53  GLU53      -0.2867
     48  CB       -28.4720   -2.6760   -3.0600 C.3    53  GLU53       0.0388
     49  CG       -27.5780   -1.4810   -2.9280 C.3    53  GLU53       0.1160
     50  CD       -26.2350   -1.6530   -3.6180 C.2    53  GLU53       0.3649
     51  OE1      -25.8740   -2.7850   -4.0460 O.co2  53  GLU53      -0.2457
     52  OE2      -25.5360   -0.6260   -3.7420 O.co2  53  GLU53      -0.2457
     53  N        -31.9050    1.4950   -0.6410 N.3    57  LEU57      -0.1245
     54  CA       -31.8270    2.7610   -1.2900 C.3    57  LEU57       0.1561
     55  C        -33.2280    3.2900   -1.4100 C.2    57  LEU57       0.2260
     56  O        -33.5210    4.3560   -0.8810 O.2    57  LEU57      -0.2867
     57  CB       -31.1330    2.6330   -2.6230 C.3    57  LEU57       0.0270
     58  CG       -29.6110    2.3660   -2.5780 C.3    57  LEU57       0.0019
     59  CD1      -29.0640    2.3240   -3.9960 C.3    57  LEU57       0.0001
     60  CD2      -28.7860    3.3650   -1.7530 C.3    57  LEU57       0.0001
     61  N        -26.2080    9.9460   -0.9940 N.3    66  LEU66      -0.1245
     62  CA       -26.2410    9.6250   -2.4120 C.3    66  LEU66       0.1561
     63  C        -27.6580    9.2970   -2.9790 C.2    66  LEU66       0.2260
     64  O        -28.3260    8.3050   -2.6160 O.2    66  LEU66      -0.2867
     65  CB       -25.2440    8.5210   -2.7010 C.3    66  LEU66       0.0270
     66  CG       -24.8140    8.6420   -4.1600 C.3    66  LEU66       0.0019
     67  CD1      -24.2850   10.0380   -4.5150 C.3    66  LEU66       0.0001
     68  CD2      -23.7880    7.6150   -4.4450 C.3    66  LEU66       0.0001
     69  N        -27.8920   -0.2180  -10.7770 N.3    79  ILE79      -0.1245
     70  CA       -28.4710    0.6970   -9.8270 C.3    79  ILE79       0.1561
     71  C        -28.0240    2.0810  -10.1990 C.2    79  ILE79       0.2260
     72  O        -26.8650    2.2460  -10.5590 O.2    79  ILE79      -0.2867
     73  CB       -28.0260    0.3490   -8.4400 C.3    79  ILE79       0.0252
     74  CG1      -28.7300   -0.9320   -8.0250 C.3    79  ILE79       0.0019
     75  CG2      -28.4380    1.3910   -7.4630 C.3    79  ILE79       0.0019
     76  CD1      -27.9950   -1.7210   -6.9620 C.3    79  ILE79       0.0001
     77  N        -27.5250    6.2610   -9.5510 N.3    81  THR81      -0.1203
     78  CA       -27.6420    7.4450   -8.7190 C.3    81  THR81       0.1994
     79  C        -27.1990    8.6830   -9.4390 C.2    81  THR81       0.2618
     80  O        -26.4670    8.5950  -10.4190 O.2    81  THR81      -0.2717
     81  CB       -26.7910    7.3010   -7.5190 C.3    81  THR81       0.1784
     82  OG1      -25.4600    7.6640   -7.8800 O.3    81  THR81      -0.2211
     83  CG2      -26.8470    5.8490   -7.0570 C.3    81  THR81       0.0376
     84  N        -27.6150    9.8350   -8.9450 N.am   82  GLN82      -0.1965
     85  CA       -27.0390   11.0970   -9.3800 C.3    82  GLN82       0.1733
     86  C        -25.5190   11.0430   -9.5880 C.2    82  GLN82       0.2616
     87  O        -24.7870   10.4460   -8.7680 O.2    82  GLN82      -0.2715
     88  CB       -27.2770   12.0970   -8.2820 C.3    82  GLN82       0.0408
     89  CG       -26.4120   11.8590   -7.0520 C.3    82  GLN82       0.0908
     90  CD       -26.6480   12.8770   -5.9390 C.2    82  GLN82       0.2608
     91  OE1      -26.9210   12.4900   -4.8010 O.2    82  GLN82      -0.2717
     92  NE2      -26.5410   14.1720   -6.2530 N.am   82  GLN82      -0.0878
     93  N        -25.0110   11.6820  -10.6420 N.am   83  TRP83      -0.1960
     94  CA       -23.5490   11.7530  -10.7590 C.3    83  TRP83       0.1771
     95  C        -22.9030   12.7920   -9.7770 C.2    83  TRP83       0.2619
     96  O        -23.3000   13.9810   -9.7700 O.2    83  TRP83      -0.2715
     97  CB       -23.1100   12.0160  -12.1930 C.3    83  TRP83       0.0590
     98  CG       -21.6080   12.1790  -12.3040 C.ar   83  TRP83       0.0006
     99  CD1      -20.9090   13.3430  -12.3150 C.ar   83  TRP83       0.0946
    100  CD2      -20.6330   11.1260  -12.3810 C.ar   83  TRP83       0.0152
    101  NE1      -19.5700   13.0870  -12.4250 N.ar   83  TRP83      -0.2442
    102  CE2      -19.3720   11.7340  -12.4610 C.ar   83  TRP83       0.0810
    103  CE3      -20.7090    9.7290  -12.3980 C.ar   83  TRP83       0.0012
    104  CZ2      -18.1920   10.9960  -12.5300 C.ar   83  TRP83       0.0191
    105  CZ3      -19.5400    9.0120  -12.4640 C.ar   83  TRP83       0.0001
    106  CH2      -18.3000    9.6390  -12.5290 C.ar   83  TRP83       0.0015
    107  N        -21.9200   12.3600   -8.9680 N.am   84  CYS84      -0.1968
    108  CA       -21.1850   13.3020   -8.1100 C.3    84  CYS84       0.1712
    109  C        -19.9830   13.9410   -8.7120 C.2    84  CYS84       0.2296
    110  O        -19.0160   13.2960   -9.1340 O.2    84  CYS84      -0.2864
    111  CB       -20.8030   12.7280   -6.7610 C.3    84  CYS84       0.0983
    112  SG       -22.2100   12.8560   -5.6320 S.3    84  CYS84      -0.0798
    113  N        -16.6080   15.8450   -8.6330 N.3    86  GLY86      -0.1225
    114  CA       -15.4630   15.7000   -7.7750 C.3    86  GLY86       0.1811
    115  C        -15.6140   14.4170   -7.0190 C.2    86  GLY86       0.2280
    116  O        -16.5680   13.6790   -7.2330 O.2    86  GLY86      -0.2866
    117  N        -14.6150   11.0360   -4.0420 N.3    88  SER88      -0.1217
    118  CA       -14.7330   10.5040   -2.6800 C.3    88  SER88       0.1889
    119  C        -13.8130   11.2260   -1.7290 C.2    88  SER88       0.2288
    120  O        -12.8700   11.8730   -2.1230 O.2    88  SER88      -0.2866
    121  CB       -14.3140    9.0520   -2.6340 C.3    88  SER88       0.2089
    122  OG       -12.9110    8.9850   -2.5810 O.3    88  SER88      -0.2183
    123  N        -11.8510    9.7160    0.4500 N.3    90  TYR90      -0.1227
    124  CA       -10.6110    8.9910    0.3520 C.3    90  TYR90       0.1736
    125  C         -9.7810    9.6320   -0.7410 C.2    90  TYR90       0.2595
    126  O         -8.7230   10.1520   -0.4520 O.2    90  TYR90      -0.2718
    127  CB       -10.9130    7.5300    0.0740 C.3    90  TYR90       0.0548
    128  CG        -9.6960    6.6860    0.0420 C.ar   90  TYR90      -0.0200
    129  CD1       -9.2500    6.0220    1.1960 C.ar   90  TYR90      -0.0009
    130  CD2       -8.9850    6.5290   -1.1430 C.ar   90  TYR90      -0.0009
    131  CE1       -8.1080    5.2180    1.1860 C.ar   90  TYR90       0.0417
    132  CE2       -7.8430    5.7250   -1.1900 C.ar   90  TYR90       0.0417
    133  CZ        -7.4000    5.0700   -0.0180 C.ar   90  TYR90       0.1957
    134  OH        -6.2560    4.2820   -0.0930 O.3    90  TYR90      -0.2866
    135  N        -10.2900    9.6640   -1.9670 N.am   91  HIS91      -0.1975
    136  CA        -9.5270   10.1690   -3.1030 C.3    91  HIS91       0.1656
    137  C         -8.9440   11.5110   -2.7510 C.2    91  HIS91       0.2291
    138  O         -7.7820   11.7580   -3.0320 O.2    91  HIS91      -0.2864
    139  CB       -10.4280   10.3400   -4.3140 C.3    91  HIS91       0.0771
    140  CG        -9.7040   10.6940   -5.5830 C.ar   91  HIS91       0.0820
    141  ND1       -9.3220   11.9830   -5.8960 N.ar   91  HIS91      -0.2267
    142  CD2       -9.3580    9.9330   -6.6520 C.ar   91  HIS91       0.1154
    143  CE1       -8.7560   11.9940   -7.0910 C.ar   91  HIS91       0.1986
    144  NE2       -8.7590   10.7620   -7.5690 N.ar   91  HIS91      -0.2212
    145  N         -5.1270   10.5450   -1.8740 N.3    95  ILE95      -0.1245
    146  CA        -4.6910   10.3550   -3.2110 C.3    95  ILE95       0.1561
    147  C         -4.2720   11.6580   -3.8220 C.2    95  ILE95       0.2260
    148  O         -3.1990   11.7390   -4.3430 O.2    95  ILE95      -0.2867
    149  CB        -5.7250    9.7020   -4.0620 C.3    95  ILE95       0.0252
    150  CG1       -5.7090    8.2200   -3.8130 C.3    95  ILE95       0.0019
    151  CG2       -5.3810    9.8750   -5.5150 C.3    95  ILE95       0.0019
    152  CD1       -6.5900    7.4960   -4.7900 C.3    95  ILE95       0.0001
    153  N        -14.4180    6.0420    1.3920 N.3   132  ASN132     -0.1225
    154  CA       -14.4320    5.7700   -0.0200 C.3   132  ASN132      0.1785
    155  C        -15.8430    5.7160   -0.3610 C.2   132  ASN132      0.2597
    156  O        -16.1990    5.9360   -1.4860 O.2   132  ASN132     -0.2718
    157  CB       -13.8010    4.4460   -0.3180 C.3   132  ASN132      0.1169
    158  CG       -12.5040    4.2900    0.3860 C.2   132  ASN132      0.2627
    159  OD1      -11.4690    4.2180   -0.2590 O.2   132  ASN132     -0.2716
    160  ND2      -12.5310    4.2680    1.7410 N.am  132  ASN132     -0.0877
    161  N        -16.6750    5.4270    0.6180 N.am  133  ASN133     -0.1974
    162  CA       -18.1030    5.5030    0.3550 C.3   133  ASN133      0.1688
    163  C        -18.7040    6.8840    0.6150 C.2   133  ASN133      0.2292
    164  O        -19.8990    7.0180    0.5640 O.2   133  ASN133     -0.2864
    165  CB       -18.8520    4.3540    1.0460 C.3   133  ASN133      0.1181
    166  CG       -18.5480    3.0010    0.4050 C.2   133  ASN133      0.2629
    167  OD1      -18.3070    2.9220   -0.7740 O.2   133  ASN133     -0.2716
    168  ND2      -18.5520    1.9500    1.1800 N.am  133  ASN133     -0.0877
    169  N        -19.0270   10.6030   -0.9160 N.3   135  PHE135     -0.1241
    170  CA       -18.7490   11.4660   -2.0970 C.3   135  PHE135      0.1605
    171  C        -19.1610   12.8790   -1.8020 C.2   135  PHE135      0.2264
    172  O        -20.2730   13.1710   -1.3200 O.2   135  PHE135     -0.2867
    173  CB       -19.3110   10.8880   -3.4000 C.3   135  PHE135      0.0534
    174  CG       -19.1660    9.4050   -3.4550 C.ar  135  PHE135     -0.0203
    175  CD1      -20.1230    8.5820   -2.8740 C.ar  135  PHE135     -0.0042
    176  CD2      -18.0160    8.8210   -3.9840 C.ar  135  PHE135     -0.0042
    177  CE1      -19.9840    7.2340   -2.8680 C.ar  135  PHE135     -0.0003
    178  CE2      -17.8560    7.4160   -4.0040 C.ar  135  PHE135     -0.0003
    179  CZ       -18.8300    6.6320   -3.4440 C.ar  135  PHE135     -0.0000
    180  N        -22.7560    3.4150   -1.6570 N.3   146  ASP146     -0.1225
    181  CA       -22.7430    1.9880   -1.5930 C.3   146  ASP146      0.1805
    182  C        -23.5910    1.3710   -0.4980 C.2   146  ASP146      0.2597
    183  O        -23.1650    1.1450    0.6390 O.2   146  ASP146     -0.2718
    184  CB       -21.3220    1.5250   -1.4440 C.3   146  ASP146      0.1424
    185  CG       -21.0210    0.3690   -2.3260 C.2   146  ASP146      0.3668
    186  OD1      -21.9690   -0.4440   -2.5660 O.co2 146  ASP146     -0.2456
    187  OD2      -19.8380    0.3300   -2.7660 O.co2 146  ASP146     -0.2456
    188  N        -24.8100    1.0630   -0.8270 N.am  147  PHE147     -0.1976
    189  CA       -25.5140    0.3420    0.1670 C.3   147  PHE147      0.1639
    190  C        -25.4830   -1.1240   -0.1900 C.2   147  PHE147      0.2290
    191  O        -26.3980   -1.8790    0.1470 O.2   147  PHE147     -0.2864
    192  CB       -26.9020    0.9360    0.3490 C.3   147  PHE147      0.0560
    193  CG       -26.8760    2.2540    1.0050 C.ar  147  PHE147     -0.0200
    194  CD1      -26.4630    3.3570    0.3180 C.ar  147  PHE147     -0.0042
    195  CD2      -27.2310    2.3750    2.3220 C.ar  147  PHE147     -0.0042
    196  CE1      -26.4160    4.5680    0.9530 C.ar  147  PHE147     -0.0003
    197  CE2      -27.2040    3.5810    2.9590 C.ar  147  PHE147     -0.0003
    198  CZ       -26.7880    4.6710    2.3060 C.ar  147  PHE147     -0.0000
@<TRIPOS>BOND
     1     1     2    1
     2     8     6    1
     3    26    25    2
     4     2     3    1
     5     2     5    1
     6     6     5    1
     7    25    24    1
     8   104   106   ar
     9   104   102   ar
    10   106   105   ar
    11   105   103   ar
    12   102   101   ar
    13   102   100   ar
    14   101    99   ar
    15   103   100   ar
    16   100    98   ar
    17    99    98   ar
    18    98    97    1
    19    97    94    1
    20    30    31    1
    21     3     9   am
    22     3     4    2
    23     5     7    1
    24    31    32    1
    25    31    34    1
    26    32    33    2
    27     9    10    1
    28    24    23    1
    29    24    27    1
    30    35    36    1
    31    37    38    2
    32    37    36    1
    33    36    39    1
    34    10    11    1
    35    69    70    1
    36    94    93    1
    37    94    95    1
    38    93    86   am
    39    72    71    2
    40    80    79    2
    41    12    11    2
    42    28    27    1
    43    27    29    1
    44    71    70    1
    45    11    13   am
    46    70    73    1
    47    95    96    2
    48    95   107   am
    49    86    85    1
    50    86    87    2
    51    77    78    1
    52    79    84   am
    53    79    78    1
    54    85    84    1
    55    85    88    1
    56    39    40    1
    57    18    17    1
    58   110   109    2
    59    13    14    1
    60   107   108    1
    61    78    81    1
    62   109   108    1
    63    40    41    1
    64   113   114    1
    65    73    74    1
    66    73    75    1
    67    14    17    1
    68    14    15    1
    69    88    89    1
    70   108   111    1
    71    74    76    1
    72    82    81    1
    73   114   115    1
    74   144   143   ar
    75   144   142   ar
    76    81    83    1
    77    15    19   am
    78    15    16    2
    79   116   115    2
    80    41    42    1
    81   143   141   ar
    82    89    90    1
    83    19    20    1
    84   111   112    1
    85   142   140   ar
    86    92    90   am
    87    42    43    1
    88    20    21    1
    89    90    91    2
    90   141   140   ar
    91   140   139    1
    92   151   149    1
    93    21    22    2
    94   152   150    1
    95    67    66    1
    96    68    66    1
    97   148   147    2
    98   139   136    1
    99    66    65    1
   100   149   150    1
   101   149   146    1
   102    51    50   ar
   103   117   118    1
   104   178   176   ar
   105   178   179   ar
   106    59    58    1
   107   176   174   ar
   108   147   146    1
   109    52    50   ar
   110    50    49    1
   111   174   173    1
   112   174   175   ar
   113   179   177   ar
   114   173   170    1
   115   146   145    1
   116   136   137    1
   117   136   135    1
   118    48    49    1
   119    48    45    1
   120   138   137    2
   121    63    64    2
   122    63    62    1
   123   175   177   ar
   124   187   185   ar
   125    65    62    1
   126   118   121    1
   127   118   119    1
   128   121   122    1
   129    57    58    1
   130    57    54    1
   131    58    60    1
   132   186   185   ar
   133    62    61    1
   134    46    45    1
   135    46    47    2
   136   185   184    1
   137   120   119    2
   138   170   171    1
   139   170   169    1
   140    45    44    1
   141   135   125   am
   142   171   172    2
   143   180   181    1
   144   181   184    1
   145   181   182    1
   146   156   155    2
   147    55    54    1
   148    55    56    2
   149    54    53    1
   150   132   130   ar
   151   132   133   ar
   152   130   128   ar
   153   188   182   am
   154   188   189    1
   155   167   166    2
   156   125   126    2
   157   125   124    1
   158   182   183    2
   159   155   154    1
   160   155   161   am
   161   157   154    1
   162   157   158    1
   163   159   158    2
   164   190   191    2
   165   190   189    1
   166   134   133    1
   167   154   153    1
   168   133   131   ar
   169   128   127    1
   170   128   129   ar
   171   127   124    1
   172   189   192    1
   173   194   196   ar
   174   194   193   ar
   175   192   193    1
   176   124   123    1
   177   162   163    1
   178   162   161    1
   179   162   165    1
   180   158   160   am
   181   166   165    1
   182   166   168   am
   183   164   163    2
   184   196   198   ar
   185   193   195   ar
   186   131   129   ar
   187   198   197   ar
   188   195   197   ar
