@<TRIPOS>MOLECULE
tmp/2fbdA00.pdb
 89 87 0 0 0
SMALL
GASTEIGER

@<TRIPOS>ATOM
      1  N         -7.7630   -4.9560   17.4880 N.3    32  GLU32      -0.1245
      2  CA        -7.4970   -4.4860   18.8600 C.3    32  GLU32       0.1567
      3  C         -8.5920   -3.5310   19.3410 C.2    32  GLU32       0.2260
      4  O         -9.0720   -3.6410   20.4650 O.2    32  GLU32      -0.2867
      5  CB        -6.1520   -3.7690   18.9300 C.3    32  GLU32       0.0388
      6  CG        -4.9680   -4.6760   18.7190 C.3    32  GLU32       0.1160
      7  CD        -4.7560   -5.6750   19.8370 C.2    32  GLU32       0.3649
      8  OE1       -5.3110   -5.4800   20.9370 O.co2  32  GLU32      -0.2457
      9  OE2       -4.0320   -6.6640   19.6100 O.co2  32  GLU32      -0.2457
     10  N         -4.9110   -2.0850   28.4190 N.3    50  ASP50      -0.1239
     11  CA        -4.3330   -1.6870   27.1670 C.3    50  ASP50       0.1674
     12  C         -5.0590   -0.4610   26.6830 C.2    50  ASP50       0.2266
     13  O         -6.2540   -0.3000   26.9300 O.2    50  ASP50      -0.2867
     14  CB        -4.4850   -2.8090   26.1600 C.3    50  ASP50       0.1410
     15  CG        -3.9370   -4.1080   26.6740 C.2    50  ASP50       0.3668
     16  OD1       -2.7500   -4.1380   27.0350 O.co2  50  ASP50      -0.2456
     17  OD2       -4.7090   -5.0850   26.7390 O.co2  50  ASP50      -0.2456
     18  N         -4.1330   -0.6990   21.4400 N.3    55  GLN55      -0.1231
     19  CA        -4.2500   -1.4500   22.7100 C.3    55  GLN55       0.1698
     20  C         -2.8760   -1.7520   23.2990 C.2    55  GLN55       0.2592
     21  O         -2.4490   -2.8950   23.4390 O.2    55  GLN55      -0.2718
     22  CB        -5.0930   -2.7090   22.5260 C.3    55  GLN55       0.0381
     23  CG        -6.5870   -2.3500   22.3430 C.3    55  GLN55       0.0905
     24  CD        -7.1790   -1.7690   23.6260 C.2    55  GLN55       0.2608
     25  OE1       -7.5140   -2.5090   24.5310 O.2    55  GLN55      -0.2717
     26  NE2       -7.2970   -0.4460   23.7010 N.am   55  GLN55      -0.0878
     27  N         -2.2070   -0.6790   23.6690 N.am   56  ILE56      -0.1966
     28  CA        -0.8330   -0.7200   24.1320 C.3    56  ILE56       0.1727
     29  C         -0.8600   -0.8810   25.6520 C.2    56  ILE56       0.2616
     30  O         -1.5710   -0.1680   26.3750 O.2    56  ILE56      -0.2715
     31  CB        -0.1110    0.5660   23.6950 C.3    56  ILE56       0.0290
     32  CG1        0.0690    0.5410   22.1670 C.3    56  ILE56       0.0022
     33  CG2        1.2420    0.7860   24.4450 C.3    56  ILE56       0.0023
     34  CD1        0.6380    1.8370   21.5750 C.3    56  ILE56       0.0001
     35  N         -0.0910   -1.8420   26.1250 N.am   57  ASN57      -0.1972
     36  CA        -0.1420   -2.2480   27.5070 C.3    57  ASN57       0.1688
     37  C          0.4680   -1.2760   28.5340 C.2    57  ASN57       0.2292
     38  O          1.5690   -0.7560   28.3470 O.2    57  ASN57      -0.2864
     39  CB         0.5120   -3.6030   27.6440 C.3    57  ASN57       0.1181
     40  CG         0.2290   -4.2140   28.9660 C.2    57  ASN57       0.2629
     41  OD1        1.0610   -4.1600   29.8450 O.2    57  ASN57      -0.2716
     42  ND2       -0.9840   -4.7770   29.1350 N.am   57  ASN57      -0.0877
     43  N          4.5160   -0.3480   28.3930 N.3    61  TRP61      -0.1241
     44  CA         4.7230    0.6830   27.3740 C.3    61  TRP61       0.1605
     45  C          4.3740    2.0980   27.7780 C.2    61  TRP61       0.2264
     46  O          4.9780    3.0390   27.2810 O.2    61  TRP61      -0.2867
     47  CB         3.9310    0.3050   26.1130 C.3    61  TRP61       0.0550
     48  CG         4.3290   -1.0670   25.6520 C.ar   61  TRP61       0.0003
     49  CD1        3.5900   -2.2070   25.7530 C.ar   61  TRP61       0.0946
     50  CD2        5.5940   -1.4530   25.0970 C.ar   61  TRP61       0.0152
     51  NE1        4.2990   -3.2740   25.2670 N.ar   61  TRP61      -0.2442
     52  CE2        5.5390   -2.8510   24.8720 C.ar   61  TRP61       0.0810
     53  CE3        6.7530   -0.7530   24.7330 C.ar   61  TRP61       0.0012
     54  CZ2        6.5900   -3.5630   24.2950 C.ar   61  TRP61       0.0191
     55  CZ3        7.7990   -1.4620   24.1580 C.ar   61  TRP61       0.0001
     56  CH2        7.7110   -2.8490   23.9420 C.ar   61  TRP61       0.0015
     57  N          7.1890   -0.6230   19.7970 N.3    96  ILE96      -0.1245
     58  CA         6.8370   -1.9780   20.2360 C.3    96  ILE96       0.1561
     59  C          7.2220   -2.9670   19.1390 C.2    96  ILE96       0.2260
     60  O          7.8870   -3.9780   19.3900 O.2    96  ILE96      -0.2867
     61  CB         5.3460   -2.0840   20.5520 C.3    96  ILE96       0.0252
     62  CG1        4.9850   -1.1280   21.6860 C.3    96  ILE96       0.0019
     63  CG2        4.9650   -3.5220   20.9250 C.3    96  ILE96       0.0019
     64  CD1        3.4670   -0.9790   21.8300 C.3    96  ILE96       0.0001
     65  N          4.2200   -9.0030   19.3360 N.3   104  ALA104     -0.1231
     66  CA         3.8010   -8.2680   20.5440 C.3   104  ALA104      0.1694
     67  C          2.2830   -8.1860   20.6590 C.2   104  ALA104      0.2592
     68  O          1.7370   -8.1570   21.7720 O.2   104  ALA104     -0.2718
     69  CB         4.3970   -6.8690   20.5680 C.3   104  ALA104      0.0304
     70  N          1.5850   -8.1210   19.5260 N.am  105  TRP105     -0.1962
     71  CA         0.1250   -8.0790   19.5430 C.3   105  TRP105      0.1771
     72  C         -0.4300   -9.4710   19.4770 C.2   105  TRP105      0.2620
     73  O         -0.0730  -10.2270   18.5710 O.2   105  TRP105     -0.2715
     74  CB        -0.4090   -7.2690   18.3570 C.3   105  TRP105      0.0590
     75  CG        -0.2220   -5.8290   18.5930 C.ar  105  TRP105      0.0006
     76  CD1       -1.0990   -5.0080   19.2290 C.ar  105  TRP105      0.0946
     77  CD2        0.9300   -5.0280   18.2840 C.ar  105  TRP105      0.0152
     78  NE1       -0.5860   -3.7440   19.3220 N.ar  105  TRP105     -0.2442
     79  CE2        0.6620   -3.7230   18.7580 C.ar  105  TRP105      0.0810
     80  CE3        2.1590   -5.2810   17.6520 C.ar  105  TRP105      0.0012
     81  CZ2        1.5730   -2.6540   18.6080 C.ar  105  TRP105      0.0191
     82  CZ3        3.0760   -4.2130   17.5070 C.ar  105  TRP105      0.0001
     83  CH2        2.7810   -2.9280   17.9900 C.ar  105  TRP105      0.0015
     84  N         -1.3260   -9.8090   20.4010 N.am  106  SER106     -0.1950
     85  CA        -1.9910  -11.0970   20.3220 C.3   106  SER106      0.1924
     86  C         -2.8050  -11.2580   19.0530 C.2   106  SER106      0.2314
     87  O         -2.9920  -12.3720   18.5720 O.2   106  SER106     -0.2863
     88  CB        -2.8550  -11.3580   21.5520 C.3   106  SER106      0.2116
     89  OG        -2.0150  -11.7780   22.6100 O.3   106  SER106     -0.2180
@<TRIPOS>BOND
     1     1     2    1
     2    82    80   ar
     3    82    83   ar
     4    80    77   ar
     5    83    81   ar
     6    77    75   ar
     7    77    79   ar
     8    74    75    1
     9    74    71    1
    10    73    72    2
    11    87    86    2
    12    75    76   ar
    13    81    79   ar
    14     6     5    1
    15     6     7    1
    16    79    78   ar
    17     2     5    1
    18     2     3    1
    19    86    85    1
    20    59    60    2
    21    59    58    1
    22    76    78   ar
    23    65    66    1
    24     3     4    2
    25    72    71    1
    26    72    84   am
    27    70    71    1
    28    70    67   am
    29     9     7   ar
    30    57    58    1
    31     7     8   ar
    32    58    61    1
    33    85    84    1
    34    85    88    1
    35    66    69    1
    36    66    67    1
    37    61    63    1
    38    61    62    1
    39    67    68    2
    40    18    19    1
    41    88    89    1
    42    34    32    1
    43    62    64    1
    44    32    31    1
    45    23    22    1
    46    23    24    1
    47    22    19    1
    48    19    20    1
    49    20    21    2
    50    20    27   am
    51    24    26   am
    52    24    25    2
    53    27    28    1
    54    31    28    1
    55    31    33    1
    56    56    55   ar
    57    56    54   ar
    58    28    29    1
    59    55    53   ar
    60    54    52   ar
    61    53    50   ar
    62    52    50   ar
    63    52    51   ar
    64    50    48   ar
    65    51    49   ar
    66    29    35   am
    67    29    30    2
    68    48    49   ar
    69    48    47    1
    70    47    44    1
    71    35    36    1
    72    14    15    1
    73    14    11    1
    74    15    17   ar
    75    15    16   ar
    76    12    13    2
    77    12    11    1
    78    11    10    1
    79    46    45    2
    80    44    45    1
    81    44    43    1
    82    36    39    1
    83    36    37    1
    84    39    40    1
    85    38    37    2
    86    40    42   am
    87    40    41    2
