@<TRIPOS>MOLECULE
tmp/2fbzA02.pdb
 125 123 0 0 0
SMALL
GASTEIGER

@<TRIPOS>ATOM
      1  N         -1.6040   33.4330   11.6360 N.3    66  CYS66      -0.1235
      2  CA        -2.0330   32.6350   10.4880 C.3    66  CYS66       0.1677
      3  C         -3.3780   33.0340    9.8840 C.2    66  CYS66       0.2270
      4  O         -4.4020   33.0350   10.5670 O.2    66  CYS66      -0.2867
      5  CB        -2.0590   31.1530   10.8620 C.3    66  CYS66       0.0956
      6  SG        -2.4190   30.0220    9.4950 S.3    66  CYS66      -0.0801
      7  N         14.6890   25.5630    9.4270 N.3   128  HIS128     -0.1226
      8  CA        13.6080   26.4880    9.7360 C.3   128  HIS128      0.1752
      9  C         12.3790   25.8810    9.0610 C.2   128  HIS128      0.2595
     10  O         11.2900   25.8420    9.6390 O.2   128  HIS128     -0.2718
     11  CB        13.8790   27.8800    9.1890 C.3   128  HIS128      0.0759
     12  CG        12.6680   28.7550    9.2080 C.ar  128  HIS128      0.0818
     13  ND1       12.1050   29.2620    8.0600 N.ar  128  HIS128     -0.2268
     14  CD2       11.8430   29.1120   10.2200 C.ar  128  HIS128      0.1154
     15  CE1       10.9810   29.8840    8.3600 C.ar  128  HIS128      0.1986
     16  NE2       10.7970   29.8080    9.6670 N.ar  128  HIS128     -0.2212
     17  N         12.5690   25.4700    7.8090 N.am  129  GLN129     -0.1979
     18  CA        11.5560   24.7760    7.0150 C.3   129  GLN129      0.1601
     19  C         12.2820   23.5600    6.4420 C.2   129  GLN129      0.2287
     20  O         13.4640   23.6520    6.1160 O.2   129  GLN129     -0.2864
     21  CB        11.0300   25.6410    5.8650 C.3   129  GLN129      0.0394
     22  CG        10.1100   26.7650    6.3150 C.3   129  GLN129      0.0908
     23  CD         9.6260   27.6060    5.1580 C.2   129  GLN129      0.2608
     24  OE1        9.4110   27.0910    4.0590 O.2   129  GLN129     -0.2717
     25  NE2        9.4670   28.9070    5.3870 N.am  129  GLN129     -0.0878
     26  N         14.1100   24.3530    1.9060 N.3   132  ARG132     -0.1245
     27  CA        14.4940   25.7610    1.9340 C.3   132  ARG132      0.1563
     28  C         15.8180   25.9120    1.1840 C.2   132  ARG132      0.2260
     29  O         16.6470   24.9970    1.1820 O.2   132  ARG132     -0.2867
     30  CB        14.6830   26.1920    3.3950 C.3   132  ARG132      0.0307
     31  CG        14.8060   27.6860    3.6660 C.3   132  ARG132      0.0489
     32  CD        13.4840   28.3970    3.4870 C.3   132  ARG132      0.2205
     33  NE        13.4350   29.6320    4.2640 N.pl3 132  ARG132     -0.0865
     34  CZ        12.5220   30.5890    4.1070 C.cat 132  ARG132      0.5346
     35  NH1       11.5620   30.4690    3.1830 N.pl3 132  ARG132      0.1354
     36  NH2       12.5560   31.6630    4.8930 N.pl3 132  ARG132      0.1354
     37  N          5.8190   24.8150    1.9490 N.3   214  PRO214     -0.2116
     38  CA         6.4400   25.4510    3.1210 C.3   214  PRO214      0.1372
     39  C          6.1670   24.5870    4.3500 C.2   214  PRO214      0.2244
     40  O          5.0150   24.3420    4.6800 O.2   214  PRO214     -0.2868
     41  CB         5.7080   26.7970    3.2000 C.3   214  PRO214      0.0268
     42  CG         4.3220   26.4500    2.7310 C.3   214  PRO214      0.0207
     43  CD         4.5860   25.5290    1.5510 C.3   214  PRO214      0.0892
     44  N          7.2730   24.5480    8.1170 N.3   216  ILE216     -0.1245
     45  CA         7.9430   25.1080    9.2870 C.3   216  ILE216      0.1561
     46  C          8.3020   23.9660   10.2270 C.2   216  ILE216      0.2260
     47  O          7.4400   23.2130   10.6880 O.2   216  ILE216     -0.2867
     48  CB         7.0720   26.1670    9.9880 C.3   216  ILE216      0.0252
     49  CG1        6.8550   27.3470    9.0220 C.3   216  ILE216      0.0019
     50  CG2        7.7220   26.6100   11.3150 C.3   216  ILE216      0.0019
     51  CD1        5.7160   28.2750    9.4140 C.3   216  ILE216      0.0001
     52  N          5.0930   21.3210   10.5870 N.3   233  PHE233     -0.1227
     53  CA         3.7410   21.4540   10.0580 C.3   233  PHE233      0.1736
     54  C          3.7780   22.1880    8.7230 C.2   233  PHE233      0.2595
     55  O          4.7660   22.8320    8.3940 O.2   233  PHE233     -0.2718
     56  CB         2.8160   22.1750   11.0550 C.3   233  PHE233      0.0547
     57  CG         3.2530   23.5830   11.4180 C.ar  233  PHE233     -0.0202
     58  CD1        2.8990   24.6680   10.6160 C.ar  233  PHE233     -0.0042
     59  CD2        3.9590   23.8270   12.5960 C.ar  233  PHE233     -0.0042
     60  CE1        3.2380   25.9790   10.9820 C.ar  233  PHE233     -0.0003
     61  CE2        4.3040   25.1340   12.9720 C.ar  233  PHE233     -0.0003
     62  CZ         3.9420   26.2110   12.1630 C.ar  233  PHE233     -0.0000
     63  N          2.7070   22.0740    7.9540 N.am  234  ASN234     -0.1960
     64  CA         2.6390   22.7380    6.6670 C.3   234  ASN234      0.1819
     65  C          1.2170   23.0200    6.2410 C.2   234  ASN234      0.2622
     66  O          0.2760   22.3120    6.6090 O.2   234  ASN234     -0.2715
     67  CB         3.2730   21.8680    5.5720 C.3   234  ASN234      0.1195
     68  CG         2.3850   20.6890    5.1760 C.2   234  ASN234      0.2630
     69  OD1        2.3580   19.6660    5.8540 O.2   234  ASN234     -0.2716
     70  ND2        1.6230   20.8510    4.0970 N.am  234  ASN234     -0.0877
     71  N          1.0990   24.0620    5.4330 N.am  235  GLY235     -0.1940
     72  CA        -0.1510   24.4400    4.8200 C.3   235  GLY235      0.2014
     73  C          0.3040   24.5730    3.3720 C.2   235  GLY235      0.2639
     74  O          1.2110   23.8460    2.9330 O.2   235  GLY235     -0.2714
     75  N         -0.3850   25.3980    2.5960 N.am  236  TRP236     -0.1959
     76  CA         0.0310   25.6640    1.2350 C.3   236  TRP236      0.1771
     77  C          0.3560   27.1440    1.2470 C.2   236  TRP236      0.2620
     78  O         -0.0540   27.8710    2.1550 O.2   236  TRP236     -0.2715
     79  CB        -1.0590   25.3510    0.2070 C.3   236  TRP236      0.0590
     80  CG        -2.3890   25.9090    0.5470 C.ar  236  TRP236      0.0006
     81  CD1       -2.7950   27.2070    0.4220 C.ar  236  TRP236      0.0946
     82  CD2       -3.4880   25.1970    1.1150 C.ar  236  TRP236      0.0152
     83  NE1       -4.0780   27.3440    0.8910 N.ar  236  TRP236     -0.2442
     84  CE2       -4.5280   26.1260    1.3240 C.ar  236  TRP236      0.0810
     85  CE3       -3.6930   23.8580    1.4770 C.ar  236  TRP236      0.0012
     86  CZ2       -5.7590   25.7590    1.8830 C.ar  236  TRP236      0.0191
     87  CZ3       -4.9180   23.4940    2.0340 C.ar  236  TRP236      0.0001
     88  CH2       -5.9340   24.4450    2.2310 C.ar  236  TRP236      0.0015
     89  N          1.1200   27.5830    0.2630 N.am  237  TYR237     -0.1960
     90  CA         1.5160   28.9780    0.1620 C.3   237  TYR237      0.1771
     91  C          0.4090   29.9590   -0.2190 C.2   237  TYR237      0.2619
     92  O         -0.5720   29.5970   -0.8770 O.2   237  TYR237     -0.2715
     93  CB         2.6160   29.1130   -0.8950 C.3   237  TYR237      0.0574
     94  CG         4.0400   29.0740   -0.3800 C.ar  237  TYR237     -0.0198
     95  CD1        4.9150   28.0670   -0.7850 C.ar  237  TYR237     -0.0009
     96  CD2        4.5270   30.0710    0.4600 C.ar  237  TYR237     -0.0009
     97  CE1        6.2310   28.0610   -0.3740 C.ar  237  TYR237      0.0417
     98  CE2        5.8380   30.0720    0.8760 C.ar  237  TYR237      0.0417
     99  CZ         6.6860   29.0640    0.4590 C.ar  237  TYR237      0.1957
    100  OH         7.9930   29.0570    0.8750 O.3   237  TYR237     -0.2866
    101  N          0.5580   31.1940    0.2540 N.am  238  MET238     -0.1977
    102  CA        -0.3260   32.2870   -0.1430 C.3   238  MET238      0.1605
    103  C          0.6540   32.9930   -1.0820 C.2   238  MET238      0.2287
    104  O          1.8100   33.2120   -0.7130 O.2   238  MET238     -0.2864
    105  CB        -0.7120   33.2100    1.0260 C.3   238  MET238      0.0413
    106  CG        -1.6000   34.3910    0.5800 C.3   238  MET238      0.0598
    107  SD        -2.4710   35.3320    1.8940 S.3   238  MET238     -0.1393
    108  CE        -1.1050   36.1100    2.7320 C.3   238  MET238      0.0692
    109  N          3.5580   35.5420   -0.0900 N.3   241  GLU241     -0.1245
    110  CA         4.7400   35.1450    0.6680 C.3   241  GLU241      0.1567
    111  C          5.9480   34.9870   -0.2460 C.2   241  GLU241      0.2260
    112  O          7.0760   35.2960    0.1350 O.2   241  GLU241     -0.2867
    113  CB         4.4730   33.8360    1.4290 C.3   241  GLU241      0.0388
    114  CG         3.3550   33.9320    2.4330 C.3   241  GLU241      0.1160
    115  CD         3.0550   32.6030    3.0950 C.2   241  GLU241      0.3649
    116  OE1        3.7160   32.2690    4.1030 O.co2 241  GLU241     -0.2457
    117  OE2        2.1420   31.9010    2.6080 O.co2 241  GLU241     -0.2457
    118  N          9.5700   36.8460   -0.2270 N.3   246  ASN246     -0.1240
    119  CA        10.7230   36.0030   -0.5740 C.3   246  ASN246      0.1653
    120  C         11.5200   36.4710   -1.7970 C.2   246  ASN246      0.2266
    121  O         12.7550   36.4840   -1.7770 O.2   246  ASN246     -0.2867
    122  CB        10.2940   34.5380   -0.7480 C.3   246  ASN246      0.1155
    123  CG         9.6640   33.9590    0.5100 C.2   246  ASN246      0.2627
    124  OD1        9.6770   34.5910    1.5780 O.2   246  ASN246     -0.2716
    125  ND2        9.0790   32.7670    0.3860 N.am  246  ASN246     -0.0877
@<TRIPOS>BOND
     1   120   121    2
     2   120   119    1
     3   103   104    2
     4   103   102    1
     5    93    94    1
     6    93    90    1
     7    92    91    2
     8    95    94   ar
     9    95    97   ar
    10   122   119    1
    11   122   123    1
    12   119   118    1
    13    94    96   ar
    14    97    99   ar
    15   111   112    2
    16   111   110    1
    17    91    90    1
    18    91   101   am
    19   102   101    1
    20   102   105    1
    21   109   110    1
    22    90    89    1
    23    79    80    1
    24    79    76    1
    25    89    77   am
    26   125   123   am
    27    81    80   ar
    28    81    83   ar
    29    99   100    1
    30    99    98   ar
    31    96    98   ar
    32   123   124    2
    33    80    82   ar
    34   106   105    1
    35   106   107    1
    36   110   113    1
    37    83    84   ar
    38    82    84   ar
    39    82    85   ar
    40    29    28    2
    41    28    27    1
    42    76    77    1
    43    76    75    1
    44    77    78    2
    45    84    86   ar
    46   113   114    1
    47    85    87   ar
    48    43    37    1
    49    43    42    1
    50    86    88   ar
    51   107   108    1
    52    26    27    1
    53    27    30    1
    54    37    38    1
    55    87    88   ar
    56   114   115    1
    57    75    73   am
    58   117   115   ar
    59    42    41    1
    60    74    73    2
    61   115   116   ar
    62    38    41    1
    63    38    39    1
    64    35    34    1
    65    73    72    1
    66    30    31    1
    67    32    31    1
    68    32    33    1
    69    24    23    2
    70    70    68   am
    71    34    33    2
    72    34    36    1
    73    39    40    2
    74    72    71    1
    75    23    25   am
    76    23    22    1
    77    68    67    1
    78    68    69    2
    79    71    65   am
    80    67    64    1
    81    21    22    1
    82    21    18    1
    83    20    19    2
    84    65    66    2
    85    65    64    1
    86    19    18    1
    87    64    63    1
    88    18    17    1
    89    17     9   am
    90    63    54   am
    91    13    15   ar
    92    13    12   ar
    93    44    45    1
    94    15    16   ar
    95    55    54    2
    96    54    53    1
    97    49    51    1
    98    49    48    1
    99     9    10    2
   100     9     8    1
   101    11    12    1
   102    11     8    1
   103    12    14   ar
   104    45    48    1
   105    45    46    1
   106     7     8    1
   107     6     5    1
   108    16    14   ar
   109     3     2    1
   110     3     4    2
   111    48    50    1
   112    53    52    1
   113    53    56    1
   114    46    47    2
   115     2     5    1
   116     2     1    1
   117    58    60   ar
   118    58    57   ar
   119    60    62   ar
   120    56    57    1
   121    57    59   ar
   122    62    61   ar
   123    59    61   ar
