@<TRIPOS>MOLECULE
tmp/2fcpA02.pdb
 106 103 0 0 0
SMALL
GASTEIGER

@<TRIPOS>ATOM
      1  N         49.7910   96.9140   44.7670 N.3   211  PHE211     -0.1241
      2  CA        49.9600   95.5070   45.0900 C.3   211  PHE211      0.1605
      3  C         50.7190   94.8460   43.9580 C.2   211  PHE211      0.2264
      4  O         50.1790   94.6750   42.8640 O.2   211  PHE211     -0.2867
      5  CB        48.6240   94.7970   45.2410 C.3   211  PHE211      0.0534
      6  CG        48.7620   93.3170   45.4610 C.ar  211  PHE211     -0.0203
      7  CD1       48.9540   92.8060   46.7390 C.ar  211  PHE211     -0.0042
      8  CD2       48.7280   92.4340   44.3830 C.ar  211  PHE211     -0.0042
      9  CE1       49.1070   91.4430   46.9430 C.ar  211  PHE211     -0.0003
     10  CE2       48.8840   91.0620   44.5780 C.ar  211  PHE211     -0.0003
     11  CZ        49.0720   90.5700   45.8600 C.ar  211  PHE211     -0.0000
     12  N         52.6230   91.4810   42.6220 N.3   213  PHE213     -0.1241
     13  CA        52.8720   90.0530   42.7500 C.3   213  PHE213      0.1605
     14  C         54.2420   89.7500   42.1820 C.2   213  PHE213      0.2264
     15  O         54.5260   90.0420   41.0200 O.2   213  PHE213     -0.2867
     16  CB        51.8250   89.2700   41.9730 C.3   213  PHE213      0.0534
     17  CG        52.1330   87.8040   41.8330 C.ar  213  PHE213     -0.0203
     18  CD1       52.1670   86.9740   42.9460 C.ar  213  PHE213     -0.0042
     19  CD2       52.3370   87.2420   40.5710 C.ar  213  PHE213     -0.0042
     20  CE1       52.3950   85.5960   42.8050 C.ar  213  PHE213     -0.0003
     21  CE2       52.5640   85.8750   40.4190 C.ar  213  PHE213     -0.0003
     22  CZ        52.5920   85.0490   41.5390 C.ar  213  PHE213     -0.0000
     23  N         56.7910   82.4840   45.2660 N.3   264  VAL264     -0.1231
     24  CA        55.6580   83.3570   44.9930 C.3   264  VAL264      0.1692
     25  C         55.4990   84.2770   46.1930 C.2   264  VAL264      0.2593
     26  O         55.7050   83.8640   47.3360 O.2   264  VAL264     -0.2718
     27  CB        54.3360   82.5620   44.8040 C.3   264  VAL264      0.0266
     28  CG1       54.3690   81.7790   43.4880 C.3   264  VAL264      0.0020
     29  CG2       54.1260   81.6020   45.9760 C.3   264  VAL264      0.0020
     30  N         55.1400   85.5250   45.9240 N.am  265  GLY265     -0.1942
     31  CA        54.9590   86.4950   46.9850 C.3   265  GLY265      0.2014
     32  C         54.3950   87.8050   46.4670 C.2   265  GLY265      0.2638
     33  O         53.7300   87.8490   45.4240 O.2   265  GLY265     -0.2714
     34  N         54.6630   88.8830   47.1980 N.am  266  TYR266     -0.1973
     35  CA        54.1800   90.1910   46.7960 C.3   266  TYR266      0.1639
     36  C         54.6710   91.3160   47.6690 C.2   266  TYR266      0.2290
     37  O         55.0450   91.1250   48.8300 O.2   266  TYR266     -0.2864
     38  CB        52.6450   90.2110   46.7820 C.3   266  TYR266      0.0560
     39  CG        52.0060   90.0090   48.1410 C.ar  266  TYR266     -0.0198
     40  CD1       52.0210   91.0250   49.0960 C.ar  266  TYR266     -0.0009
     41  CD2       51.4020   88.7990   48.4790 C.ar  266  TYR266     -0.0009
     42  CE1       51.4610   90.8450   50.3440 C.ar  266  TYR266      0.0417
     43  CE2       50.8370   88.6080   49.7330 C.ar  266  TYR266      0.0417
     44  CZ        50.8710   89.6390   50.6620 C.ar  266  TYR266      0.1957
     45  OH        50.3240   89.4700   51.9170 O.3   266  TYR266     -0.2866
     46  N         55.5390   89.9060   51.6060 N.3   282  LEU282     -0.1245
     47  CA        55.3890   88.4820   51.8760 C.3   282  LEU282      0.1561
     48  C         55.9240   87.5780   50.7670 C.2   282  LEU282      0.2260
     49  O         55.8300   87.8950   49.5850 O.2   282  LEU282     -0.2867
     50  CB        53.9130   88.1710   52.1370 C.3   282  LEU282      0.0270
     51  CG        53.4550   86.7120   52.2370 C.3   282  LEU282      0.0019
     52  CD1       52.0990   86.6660   52.9040 C.3   282  LEU282      0.0001
     53  CD2       53.3760   86.0790   50.8490 C.3   282  LEU282      0.0001
     54  N         56.8860   83.1410   49.7920 N.3   284  PHE284     -0.1241
     55  CA        56.9970   81.7270   50.1120 C.3   284  PHE284      0.1605
     56  C         57.9010   81.0440   49.0740 C.2   284  PHE284      0.2264
     57  O         57.7820   81.2890   47.8720 O.2   284  PHE284     -0.2867
     58  CB        55.6450   81.0270   50.1020 C.3   284  PHE284      0.0534
     59  CG        55.7550   79.5490   50.3650 C.ar  284  PHE284     -0.0203
     60  CD1       55.9370   79.0700   51.6600 C.ar  284  PHE284     -0.0042
     61  CD2       55.7670   78.6420   49.3100 C.ar  284  PHE284     -0.0042
     62  CE1       56.1310   77.7080   51.8960 C.ar  284  PHE284     -0.0003
     63  CE2       55.9610   77.2820   49.5310 C.ar  284  PHE284     -0.0003
     64  CZ        56.1440   76.8090   50.8240 C.ar  284  PHE284     -0.0000
     65  N         61.3330   74.7660   52.5340 N.3   335  GLN335     -0.1245
     66  CA        60.2480   75.7060   52.3220 C.3   335  GLN335      0.1566
     67  C         60.5630   76.8510   53.2450 C.2   335  GLN335      0.2260
     68  O         61.0380   76.6470   54.3620 O.2   335  GLN335     -0.2867
     69  CB        58.8890   75.0950   52.6670 C.3   335  GLN335      0.0367
     70  CG        58.9550   73.8160   53.4630 C.3   335  GLN335      0.0905
     71  CD        59.1430   72.5860   52.6040 C.2   335  GLN335      0.2608
     72  OE1       59.5290   71.5310   53.0990 O.2   335  GLN335     -0.2717
     73  NE2       58.8640   72.7110   51.3140 N.am  335  GLN335     -0.0878
     74  N         58.8870   80.6740   54.4550 N.3   337  PHE337     -0.1241
     75  CA        57.8000   81.6410   54.4360 C.3   337  PHE337      0.1605
     76  C         58.2110   82.9090   55.1750 C.2   337  PHE337      0.2264
     77  O         58.8790   82.8540   56.2160 O.2   337  PHE337     -0.2867
     78  CB        56.5480   81.0530   55.0880 C.3   337  PHE337      0.0534
     79  CG        55.4130   82.0330   55.2000 C.ar  337  PHE337     -0.0203
     80  CD1       54.6680   82.3840   54.0820 C.ar  337  PHE337     -0.0042
     81  CD2       55.1330   82.6540   56.4140 C.ar  337  PHE337     -0.0042
     82  CE1       53.6680   83.3420   54.1710 C.ar  337  PHE337     -0.0003
     83  CE2       54.1340   83.6140   56.5110 C.ar  337  PHE337     -0.0003
     84  CZ        53.4010   83.9610   55.3860 C.ar  337  PHE337     -0.0000
     85  N         58.1460   88.2280   60.5120 N.3   362  PHE362     -0.1241
     86  CA        58.0540   86.8010   60.7780 C.3   362  PHE362      0.1605
     87  C         58.5750   85.9140   59.6490 C.2   362  PHE362      0.2264
     88  O         58.4150   86.2280   58.4730 O.2   362  PHE362     -0.2867
     89  CB        56.5990   86.4130   61.0780 C.3   362  PHE362      0.0534
     90  CG        56.4000   84.9340   61.2620 C.ar  362  PHE362     -0.0203
     91  CD1       56.8150   84.2960   62.4270 C.ar  362  PHE362     -0.0042
     92  CD2       55.8740   84.1640   60.2350 C.ar  362  PHE362     -0.0042
     93  CE1       56.7080   82.9030   62.5530 C.ar  362  PHE362     -0.0003
     94  CE2       55.7690   82.7760   60.3540 C.ar  362  PHE362     -0.0003
     95  CZ        56.1850   82.1470   61.5080 C.ar  362  PHE362     -0.0000
     96  N         59.7380   81.4420   58.8530 N.3   364  ARG364     -0.1245
     97  CA        59.9210   80.0710   59.2910 C.3   364  ARG364      0.1563
     98  C         60.6370   79.3670   58.1480 C.2   364  ARG364      0.2260
     99  O         60.2770   79.5300   56.9800 O.2   364  ARG364     -0.2867
    100  CB        58.5920   79.3700   59.5750 C.3   364  ARG364      0.0307
    101  CG        57.6320   79.2960   58.3950 C.3   364  ARG364      0.0489
    102  CD        56.5850   78.2030   58.6120 C.3   364  ARG364      0.2205
    103  NE        57.1560   76.8760   58.4210 N.pl3 364  ARG364     -0.0865
    104  CZ        56.9180   76.1100   57.3600 C.cat 364  ARG364      0.5346
    105  NH1       56.1060   76.5500   56.4100 N.pl3 364  ARG364      0.1354
    106  NH2       57.5110   74.9190   57.2330 N.pl3 364  ARG364      0.1354
@<TRIPOS>BOND
     1    21    19   ar
     2    21    22   ar
     3    19    17   ar
     4    15    14    2
     5    22    20   ar
     6    17    16    1
     7    17    18   ar
     8    16    13    1
     9    14    13    1
    10    12    13    1
    11    20    18   ar
    12     4     3    2
    13    28    27    1
    14     3     2    1
    15     8    10   ar
    16     8     6   ar
    17    10    11   ar
    18     1     2    1
    19    27    24    1
    20    27    29    1
    21    24    23    1
    22    24    25    1
    23     2     5    1
    24     5     6    1
    25    33    32    2
    26     6     7   ar
    27    11     9   ar
    28    30    25   am
    29    30    31    1
    30    25    26    2
    31    32    31    1
    32    32    34   am
    33     7     9   ar
    34    38    35    1
    35    38    39    1
    36    35    34    1
    37    35    36    1
    38    36    37    2
    39    57    56    2
    40    39    41   ar
    41    39    40   ar
    42    41    43   ar
    43    56    55    1
    44    40    42   ar
    45    61    63   ar
    46    61    59   ar
    47    63    64   ar
    48    49    48    2
    49    43    44   ar
    50    54    55    1
    51    58    55    1
    52    58    59    1
    53    42    44   ar
    54    59    60   ar
    55    44    45    1
    56    48    47    1
    57    64    62   ar
    58    53    51    1
    59    73    71   am
    60    46    47    1
    61    60    62   ar
    62    47    50    1
    63    50    51    1
    64    51    52    1
    65    66    65    1
    66    66    69    1
    67    66    67    1
    68    71    72    2
    69    71    70    1
    70    69    70    1
    71    67    68    2
    72    80    82   ar
    73    80    79   ar
    74    82    84   ar
    75    75    74    1
    76    75    78    1
    77    75    76    1
    78    78    79    1
    79    76    77    2
    80    79    81   ar
    81    84    83   ar
    82   105   104    1
    83    81    83   ar
    84    99    98    2
    85   106   104    1
    86   104   103    2
    87    98    97    1
    88   101   102    1
    89   101   100    1
    90   103   102    1
    91    88    87    2
    92    96    97    1
    93    97   100    1
    94    87    86    1
    95    92    94   ar
    96    92    90   ar
    97    94    95   ar
    98    85    86    1
    99    86    89    1
   100    89    90    1
   101    90    91   ar
   102    95    93   ar
   103    91    93   ar
