@<TRIPOS>MOLECULE
tmp/2fcpA00.pdb
 113 102 0 0 0
SMALL
GASTEIGER

@<TRIPOS>ATOM
      1  N         56.8860   83.1410   49.7920 N.3   284  PHE284     -0.1241
      2  CA        56.9970   81.7270   50.1120 C.3   284  PHE284      0.1605
      3  C         57.9010   81.0440   49.0740 C.2   284  PHE284      0.2264
      4  O         57.7820   81.2890   47.8720 O.2   284  PHE284     -0.2867
      5  CB        55.6450   81.0270   50.1020 C.3   284  PHE284      0.0534
      6  CG        55.7550   79.5490   50.3650 C.ar  284  PHE284     -0.0203
      7  CD1       55.9370   79.0700   51.6600 C.ar  284  PHE284     -0.0042
      8  CD2       55.7670   78.6420   49.3100 C.ar  284  PHE284     -0.0042
      9  CE1       56.1310   77.7080   51.8960 C.ar  284  PHE284     -0.0003
     10  CE2       55.9610   77.2820   49.5310 C.ar  284  PHE284     -0.0003
     11  CZ        56.1440   76.8090   50.8240 C.ar  284  PHE284     -0.0000
     12  N         60.0650   77.2600   47.8650 N.3   286  GLU286     -0.1245
     13  CA        60.3890   75.8570   48.0200 C.3   286  GLU286      0.1567
     14  C         61.5910   75.6650   47.1110 C.2   286  GLU286      0.2260
     15  O         61.4720   75.7640   45.8860 O.2   286  GLU286     -0.2867
     16  CB        59.2370   74.9430   47.5950 C.3   286  GLU286      0.0388
     17  CG        59.6940   73.4770   47.4520 C.3   286  GLU286      0.1160
     18  CD        58.6070   72.4530   47.7270 C.2   286  GLU286      0.3649
     19  OE1       58.1470   72.3660   48.8880 O.co2 286  GLU286     -0.2457
     20  OE2       58.2210   71.7250   46.7910 O.co2 286  GLU286     -0.2457
     21  N         65.4770   69.6210   50.4100 N.3   333  LYS333     -0.1245
     22  CA        64.2720   70.3090   49.9900 C.3   333  LYS333      0.1561
     23  C         63.8610   71.2110   51.1370 C.2   333  LYS333      0.2260
     24  O         63.7590   70.7380   52.2680 O.2   333  LYS333     -0.2867
     25  CB        63.1610   69.3060   49.7010 C.3   333  LYS333      0.0271
     26  CG        61.8650   69.9350   49.2000 C.3   333  LYS333      0.0035
     27  CD        60.7690   68.8900   48.9740 C.3   333  LYS333      0.0206
     28  CE        60.3150   68.2520   50.2870 C.3   333  LYS333      0.1093
     29  NZ        59.1480   67.3490   50.0920 N.3   333  LYS333     -0.1314
     30  N         61.3330   74.7660   52.5340 N.3   335  GLN335     -0.1245
     31  CA        60.2480   75.7060   52.3220 C.3   335  GLN335      0.1566
     32  C         60.5630   76.8510   53.2450 C.2   335  GLN335      0.2260
     33  O         61.0380   76.6470   54.3620 O.2   335  GLN335     -0.2867
     34  CB        58.8890   75.0950   52.6670 C.3   335  GLN335      0.0367
     35  CG        58.9550   73.8160   53.4630 C.3   335  GLN335      0.0905
     36  CD        59.1430   72.5860   52.6040 C.2   335  GLN335      0.2608
     37  OE1       59.5290   71.5310   53.0990 O.2   335  GLN335     -0.2717
     38  NE2       58.8640   72.7110   51.3140 N.am  335  GLN335     -0.0878
     39  N         59.7380   81.4420   58.8530 N.3   364  ARG364     -0.1245
     40  CA        59.9210   80.0710   59.2910 C.3   364  ARG364      0.1563
     41  C         60.6370   79.3670   58.1480 C.2   364  ARG364      0.2260
     42  O         60.2770   79.5300   56.9800 O.2   364  ARG364     -0.2867
     43  CB        58.5920   79.3700   59.5750 C.3   364  ARG364      0.0307
     44  CG        57.6320   79.2960   58.3950 C.3   364  ARG364      0.0489
     45  CD        56.5850   78.2030   58.6120 C.3   364  ARG364      0.2205
     46  NE        57.1560   76.8760   58.4210 N.pl3 364  ARG364     -0.0865
     47  CZ        56.9180   76.1100   57.3600 C.cat 364  ARG364      0.5346
     48  NH1       56.1060   76.5500   56.4100 N.pl3 364  ARG364      0.1354
     49  NH2       57.5110   74.9190   57.2330 N.pl3 364  ARG364      0.1354
     50  N         62.3490   75.5700   56.8580 N.3   366  ARG366     -0.1245
     51  CA        62.4290   74.1490   57.0860 C.3   366  ARG366      0.1563
     52  C         63.2460   73.5450   55.9750 C.2   366  ARG366      0.2260
     53  O         62.9600   73.7690   54.7970 O.2   366  ARG366     -0.2867
     54  CB        61.0420   73.5430   57.0980 C.3   366  ARG366      0.0307
     55  CG        61.0290   72.0360   57.1670 C.3   366  ARG366      0.0489
     56  CD        59.7390   71.5860   57.8100 C.3   366  ARG366      0.2205
     57  NE        59.4500   70.1960   57.5190 N.pl3 366  ARG366     -0.0865
     58  CZ        58.5450   69.4900   58.1720 C.cat 366  ARG366      0.5346
     59  NH1       57.8520   70.0640   59.1440 N.pl3 366  ARG366      0.1354
     60  NH2       58.3460   68.2180   57.8580 N.pl3 366  ARG366      0.1354
     61  N         65.0210   69.7730   54.8550 N.3   368  ASP368     -0.1239
     62  CA        65.2000   68.3500   55.1020 C.3   368  ASP368      0.1674
     63  C         66.4360   67.8600   54.3350 C.2   368  ASP368      0.2266
     64  O         66.4910   67.9190   53.1060 O.2   368  ASP368     -0.2867
     65  CB        63.9520   67.5860   54.6520 C.3   368  ASP368      0.1410
     66  CG        63.7690   66.2700   55.3890 C.2   368  ASP368      0.3668
     67  OD1       64.7090   65.4440   55.3950 O.co2 368  ASP368     -0.2456
     68  OD2       62.6760   66.0590   55.9580 O.co2 368  ASP368     -0.2456
     69  N         67.0340   67.3070   59.7260 N.3   417  LEU417     -0.1245
     70  CA        65.8490   68.0890   59.4230 C.3   417  LEU417      0.1561
     71  C         65.9380   69.3040   60.3180 C.2   417  LEU417      0.2260
     72  O         65.7080   69.2110   61.5220 O.2   417  LEU417     -0.2867
     73  CB        64.5700   67.3270   59.7600 C.3   417  LEU417      0.0270
     74  CG        63.3240   68.2150   59.6450 C.3   417  LEU417      0.0019
     75  CD1       62.9610   68.4030   58.1750 C.3   417  LEU417      0.0001
     76  CD2       62.1750   67.5940   60.4170 C.3   417  LEU417      0.0001
     77  N         64.8590   73.2150   61.4900 N.3   419  LYS419     -0.1245
     78  CA        63.7400   74.1350   61.5330 C.3   419  LYS419      0.1561
     79  C         64.2450   75.4140   62.1480 C.2   419  LYS419      0.2260
     80  O         65.1090   75.3930   63.0210 O.2   419  LYS419     -0.2867
     81  CB        62.5900   73.5810   62.3850 C.3   419  LYS419      0.0271
     82  CG        61.8440   72.4290   61.7480 C.3   419  LYS419      0.0035
     83  CD        60.6790   71.9480   62.5880 C.3   419  LYS419      0.0206
     84  CE        59.9410   70.8150   61.8550 C.3   419  LYS419      0.1093
     85  NZ        58.6140   70.4630   62.4380 N.3   419  LYS419     -0.1314
     86  N         62.6460   79.5490   63.1340 N.3   421  LYS421     -0.1245
     87  CA        61.4780   80.4020   63.2760 C.3   421  LYS421      0.1561
     88  C         61.9800   81.6820   63.9310 C.2   421  LYS421      0.2260
     89  O         62.8730   81.6440   64.7810 O.2   421  LYS421     -0.2867
     90  CB        60.4440   79.7130   64.1660 C.3   421  LYS421      0.0271
     91  CG        59.0080   79.8350   63.6940 C.3   421  LYS421      0.0035
     92  CD        58.1470   78.8160   64.4140 C.3   421  LYS421      0.0206
     93  CE        56.7760   78.6960   63.7710 C.3   421  LYS421      0.1093
     94  NZ        56.0220   77.5440   64.3270 N.3   421  LYS421     -0.1314
     95  N         66.5460   67.8240   63.9820 N.3   452  LEU452     -0.1245
     96  CA        66.3200   66.4030   64.1580 C.3   452  LEU452      0.1561
     97  C         67.3620   65.5930   63.4020 C.2   452  LEU452      0.2260
     98  O         67.5260   65.7440   62.1910 O.2   452  LEU452     -0.2867
     99  CB        64.9210   65.9990   63.6620 C.3   452  LEU452      0.0270
    100  CG        64.7790   64.4820   63.3980 C.3   452  LEU452      0.0019
    101  CD1       64.8390   63.7250   64.7210 C.3   452  LEU452      0.0001
    102  CD2       63.4810   64.1640   62.6530 C.3   452  LEU452      0.0001
    103  N         67.9320   62.3200   62.0130 N.3   454  ARG454     -0.1245
    104  CA        67.2510   61.0910   61.6480 C.3   454  ARG454      0.1563
    105  C         68.1240   59.8540   61.8460 C.2   454  ARG454      0.2260
    106  O         67.6150   58.7870   62.1890 O.2   454  ARG454     -0.2867
    107  CB        66.7870   61.1710   60.1940 C.3   454  ARG454      0.0307
    108  CG        65.8000   62.2900   59.9130 C.3   454  ARG454      0.0489
    109  CD        65.4490   62.3270   58.4300 C.3   454  ARG454      0.2205
    110  NE        64.4170   63.3120   58.0990 N.pl3 454  ARG454     -0.0865
    111  CZ        63.1960   63.3490   58.6360 C.cat 454  ARG454      0.5346
    112  NH1       62.8310   62.4620   59.5500 N.pl3 454  ARG454      0.1354
    113  NH2       62.3270   64.2670   58.2420 N.pl3 454  ARG454      0.1354
@<TRIPOS>BOND
     1    15    14    2
     2    20    18   ar
     3    14    13    1
     4    17    16    1
     5    17    18    1
     6    16    13    1
     7    18    19   ar
     8    12    13    1
     9     4     3    2
    10    27    26    1
    11    27    28    1
    12     3     2    1
    13    26    25    1
    14     8    10   ar
    15     8     6   ar
    16    10    11   ar
    17    25    22    1
    18     1     2    1
    19    22    21    1
    20    22    23    1
    21    29    28    1
    22     5     2    1
    23     5     6    1
    24     6     7   ar
    25    11     9   ar
    26    23    24    2
    27    38    36   am
    28     7     9   ar
    29    31    30    1
    30    31    34    1
    31    31    32    1
    32    36    37    2
    33    36    35    1
    34    34    35    1
    35    64    63    2
    36    32    33    2
    37    63    62    1
    38    65    62    1
    39    65    66    1
    40    53    52    2
    41    61    62    1
    42    66    67   ar
    43    66    68   ar
    44    52    51    1
    45    48    47    1
    46    50    51    1
    47    42    41    2
    48    51    54    1
    49    54    55    1
    50    55    56    1
    51    49    47    1
    52    47    46    2
    53    57    56    1
    54    57    58    2
    55    60    58    1
    56   110   109    1
    57   110   111    2
    58    41    40    1
    59    58    59    1
    60    75    74    1
    61   113   111    1
    62    44    45    1
    63    44    43    1
    64    46    45    1
    65   109   108    1
    66   111   112    1
    67    39    40    1
    68    40    43    1
    69    70    69    1
    70    70    73    1
    71    70    71    1
    72    74    73    1
    73    74    76    1
    74   108   107    1
    75   107   104    1
    76    71    72    2
    77    77    78    1
    78    78    79    1
    79    78    81    1
    80   104   105    1
    81   104   103    1
    82    82    81    1
    83    82    83    1
    84   105   106    2
    85    84    85    1
    86    84    83    1
    87    79    80    2
    88    98    97    2
    89   102   100    1
    90    86    87    1
    91    87    88    1
    92    87    90    1
    93   100    99    1
    94   100   101    1
    95    97    96    1
    96    99    96    1
    97    91    90    1
    98    91    92    1
    99    93    94    1
   100    93    92    1
   101    88    89    2
   102    95    96    1
