@<TRIPOS>MOLECULE
tmp/2fcrA00.pdb
 142 139 0 0 0
SMALL
GASTEIGER

@<TRIPOS>ATOM
      1  N         42.8210   36.0950   13.3380 N.3     8  THR8       -0.1203
      2  CA        42.2740   34.8210   12.8610 C.3     8  THR8        0.1994
      3  C         42.3820   34.7030   11.3380 C.2     8  THR8        0.2619
      4  O         42.6300   35.7340   10.6900 O.2     8  THR8       -0.2717
      5  CB        40.7230   34.9040   13.2530 C.3     8  THR8        0.1784
      6  OG1       40.1190   33.6290   12.9290 O.3     8  THR8       -0.2211
      7  CG2       40.0110   36.0510   12.5420 C.3     8  THR8        0.0376
      8  N         42.1410   33.4920   10.8830 N.am    9  SER9       -0.1937
      9  CA        42.1020   33.2680    9.4220 C.3     9  SER9        0.2055
     10  C         40.6980   32.7750    9.0930 C.2     9  SER9        0.2643
     11  O         40.0750   33.3260    8.1660 O.2     9  SER9       -0.2714
     12  CB        43.2020   32.3500    8.9220 C.3     9  SER9        0.2130
     13  OG        42.9670   31.9930    7.5530 O.3     9  SER9       -0.2179
     14  N         40.1890   31.7880    9.8150 N.am   10  THR10      -0.1950
     15  CA        38.8730   31.2270    9.5300 C.3    10  THR10       0.1897
     16  C         37.7990   31.5880   10.5480 C.2    10  THR10       0.2313
     17  O         36.7050   30.9780   10.4850 O.2    10  THR10      -0.2863
     18  CB        38.8860   29.7130    9.1720 C.3    10  THR10       0.1794
     19  OG1       39.5720   28.9220   10.1670 O.3    10  THR10      -0.2208
     20  CG2       39.4900   29.4250    7.7690 C.3    10  THR10       0.0378
     21  N         37.5510   31.1050   13.9350 N.3    12  ASN12      -0.1225
     22  CA        37.3920   30.3230   15.1570 C.3    12  ASN12       0.1785
     23  C         37.8940   31.1100   16.4010 C.2    12  ASN12       0.2597
     24  O         37.2200   31.0410   17.4520 O.2    12  ASN12      -0.2718
     25  CB        38.0150   28.9370   15.1050 C.3    12  ASN12       0.1169
     26  CG        37.2770   28.0140   14.1510 C.2    12  ASN12       0.2627
     27  OD1       36.3370   27.3300   14.5600 O.2    12  ASN12      -0.2716
     28  ND2       37.6780   28.0280   12.8950 N.am   12  ASN12      -0.0877
     29  N         39.0070   31.7790   16.2360 N.am   13  THR13      -0.1953
     30  CA        39.6360   32.5700   17.2760 C.3    13  THR13       0.1897
     31  C         38.7210   33.7370   17.6740 C.2    13  THR13       0.2313
     32  O         38.6890   34.0930   18.8620 O.2    13  THR13      -0.2863
     33  CB        41.0790   33.0680   16.9350 C.3    13  THR13       0.1794
     34  OG1       41.8040   31.8710   16.5380 O.3    13  THR13      -0.2208
     35  CG2       41.7720   33.7950   18.0830 C.3    13  THR13       0.0378
     36  N         45.4400   31.4320   16.4010 N.3    54  PRO54      -0.2102
     37  CA        45.4840   30.0450   15.9240 C.3    54  PRO54       0.1504
     38  C         46.9210   29.7570   15.4240 C.2    54  PRO54       0.2576
     39  O         47.8110   30.6360   15.4010 O.2    54  PRO54      -0.2718
     40  CB        44.5120   30.0890   14.7250 C.3    54  PRO54       0.0282
     41  CG        44.8230   31.4610   14.1510 C.3    54  PRO54       0.0208
     42  CD        45.0010   32.3890   15.3550 C.3    54  PRO54       0.0893
     43  N         47.1500   28.5510   15.0030 N.am   55  THR55      -0.1939
     44  CA        48.4400   28.0480   14.4580 C.3    55  THR55       0.2028
     45  C         48.1160   27.5650   13.0200 C.2    55  THR55       0.2642
     46  O         47.3470   26.6220   12.8830 O.2    55  THR55      -0.2714
     47  CB        49.0890   26.9050   15.2700 C.3    55  THR55       0.1808
     48  OG1       49.3110   27.4280   16.6460 O.3    55  THR55      -0.2208
     49  CG2       50.4240   26.3390   14.7420 C.3    55  THR55       0.0379
     50  N         48.7450   28.1900   12.0540 N.am   56  TRP56      -0.1973
     51  CA        48.5100   27.8230   10.6220 C.3    56  TRP56       0.1640
     52  C         49.7630   27.3990    9.9110 C.2    56  TRP56       0.2290
     53  O         49.6740   26.5640    8.9680 O.2    56  TRP56      -0.2864
     54  CB        47.8680   29.0640    9.9400 C.3    56  TRP56       0.0576
     55  CG        46.3810   29.0930   10.0530 C.ar   56  TRP56       0.0006
     56  CD1       45.6310   29.6690   11.0590 C.ar   56  TRP56       0.0946
     57  CD2       45.4270   28.5260    9.1440 C.ar   56  TRP56       0.0152
     58  NE1       44.2960   29.4840   10.8200 N.ar   56  TRP56      -0.2442
     59  CE2       44.1490   28.7950    9.6500 C.ar   56  TRP56       0.0810
     60  CE3       45.5800   27.8180    7.9280 C.ar   56  TRP56       0.0012
     61  CZ2       42.9860   28.3600    9.0080 C.ar   56  TRP56       0.0191
     62  CZ3       44.4290   27.4130    7.2970 C.ar   56  TRP56       0.0001
     63  CH2       43.1580   27.6770    7.8030 C.ar   56  TRP56       0.0015
     64  N         52.4960   25.2650   10.0990 N.3    58  THR58      -0.1218
     65  CA        53.0620   24.1020   10.7750 C.3    58  THR58       0.1862
     66  C         54.5750   23.9800   10.7180 C.2    58  THR58       0.2287
     67  O         55.1340   24.0340    9.6100 O.2    58  THR58      -0.2866
     68  CB        52.4520   22.7690   10.1730 C.3    58  THR58       0.1770
     69  OG1       51.0340   23.0380    9.9450 O.3    58  THR58      -0.2211
     70  CG2       52.7380   21.5730   11.0990 C.3    58  THR58       0.0375
     71  N         44.3530   28.4530   19.4360 N.3    92  LEU92      -0.1231
     72  CA        43.4950   27.4380   18.8110 C.3    92  LEU92       0.1693
     73  C         44.3460   26.5340   17.9410 C.2    92  LEU92       0.2593
     74  O         45.3510   27.0180   17.3730 O.2    92  LEU92      -0.2718
     75  CB        42.4330   28.1990   17.9920 C.3    92  LEU92       0.0284
     76  CG        41.2060   28.6000   18.8220 C.3    92  LEU92       0.0019
     77  CD1       41.5750   29.8450   19.6690 C.3    92  LEU92       0.0001
     78  CD2       40.1380   28.9510   17.7820 C.3    92  LEU92       0.0001
     79  N         43.9590   25.2890   17.9070 N.am   93  GLY93      -0.1942
     80  CA        44.7720   24.3170   17.0830 C.3    93  GLY93       0.2014
     81  C         43.9520   23.0720   16.8960 C.2    93  GLY93       0.2638
     82  O         42.7190   23.0580   17.1460 O.2    93  GLY93      -0.2714
     83  N         44.6520   22.0320   16.5090 N.am   94  ASP94      -0.1971
     84  CA        44.0410   20.7140   16.2020 C.3    94  ASP94       0.1709
     85  C         44.9890   19.6100   16.6510 C.2    94  ASP94       0.2293
     86  O         46.0060   19.4250   16.0030 O.2    94  ASP94      -0.2864
     87  CB        43.7300   20.7720   14.7130 C.3    94  ASP94       0.1436
     88  CG        43.2090   19.4980   14.1170 C.2    94  ASP94       0.3671
     89  OD1       43.0430   19.4390   12.8660 O.co2  94  ASP94      -0.2456
     90  OD2       43.0110   18.5360   14.8780 O.co2  94  ASP94      -0.2456
     91  N         47.5440   17.7300   14.0480 N.3    98  TYR98      -0.1241
     92  CA        48.9110   18.1840   14.3210 C.3    98  TYR98       0.1605
     93  C         49.3620   17.7690   15.7130 C.2    98  TYR98       0.2264
     94  O         49.6290   18.6580   16.5770 O.2    98  TYR98      -0.2867
     95  CB        48.8920   19.7470   14.2130 C.3    98  TYR98       0.0534
     96  CG        48.4660   20.1280   12.8040 C.ar   98  TYR98      -0.0201
     97  CD1       49.3680   20.1570   11.7410 C.ar   98  TYR98      -0.0009
     98  CD2       47.0990   20.3380   12.5540 C.ar   98  TYR98      -0.0009
     99  CE1       48.9110   20.4060   10.4450 C.ar   98  TYR98       0.0417
    100  CE2       46.6540   20.5960   11.2640 C.ar   98  TYR98       0.0417
    101  CZ        47.5690   20.6160   10.2290 C.ar   98  TYR98       0.1957
    102  OH        47.0550   20.8500    8.9560 O.3    98  TYR98      -0.2866
    103  N         52.6230   19.2880   16.7310 N.3   101  ASN101     -0.1225
    104  CA        52.7190   20.7530   16.5890 C.3   101  ASN101      0.1785
    105  C         51.5170   21.4660   17.2020 C.2   101  ASN101      0.2597
    106  O         51.0850   22.4810   16.6400 O.2   101  ASN101     -0.2718
    107  CB        52.7690   21.0550   15.0540 C.3   101  ASN101      0.1169
    108  CG        54.0850   20.5570   14.4750 C.2   101  ASN101      0.2627
    109  OD1       55.1280   21.2410   14.6740 O.2   101  ASN101     -0.2716
    110  ND2       54.0280   19.4390   13.7980 N.am  101  ASN101     -0.0877
    111  N         50.9830   20.8850   18.2540 N.am  102  PHE102     -0.1962
    112  CA        49.7560   21.4070   18.8790 C.3   102  PHE102      0.1771
    113  C         49.9090   22.7890   19.4870 C.2   102  PHE102      0.2619
    114  O         50.6210   22.9650   20.4640 O.2   102  PHE102     -0.2715
    115  CB        49.1780   20.3720   19.8390 C.3   102  PHE102      0.0574
    116  CG        47.8240   20.7330   20.4250 C.ar  102  PHE102     -0.0200
    117  CD1       47.6710   20.7720   21.8110 C.ar  102  PHE102     -0.0042
    118  CD2       46.7370   21.0260   19.6010 C.ar  102  PHE102     -0.0042
    119  CE1       46.4630   21.0750   22.3910 C.ar  102  PHE102     -0.0003
    120  CE2       45.4970   21.3240   20.1630 C.ar  102  PHE102     -0.0003
    121  CZ        45.3640   21.3680   21.5500 C.ar  102  PHE102     -0.0000
    122  N         49.1900   23.7360   18.9070 N.am  103  CYS103     -0.1968
    123  CA        49.1460   25.1330   19.3170 C.3   103  CYS103      0.1712
    124  C         50.5320   25.7290   19.4810 C.2   103  CYS103      0.2296
    125  O         50.7860   26.4410   20.4700 O.2   103  CYS103     -0.2864
    126  CB        48.3390   25.2890   20.6240 C.3   103  CYS103      0.0983
    127  SG        46.5710   24.9860   20.4020 S.3   103  CYS103     -0.0798
    128  N         39.0070   23.5410   18.6230 N.3   149  MET149     -0.1230
    129  CA        37.6140   23.8000   18.1690 C.3   149  MET149      0.1702
    130  C         37.2970   22.9600   16.9300 C.2   149  MET149      0.2592
    131  O         36.1710   23.0620   16.4010 O.2   149  MET149     -0.2718
    132  CB        37.3860   25.2840   17.9180 C.3   149  MET149      0.0401
    133  CG        37.9320   26.1190   19.0660 C.3   149  MET149      0.0596
    134  SD        36.4700   26.4510   20.1460 S.3   149  MET149     -0.1393
    135  CE        35.6690   27.6720   19.0720 C.3   149  MET149      0.0692
    136  N         38.3010   22.2030   16.4860 N.am  150  VAL150     -0.1980
    137  CA        38.0850   21.3140   15.3270 C.3   150  VAL150      0.1595
    138  C         37.4430   20.0150   15.8100 C.2   150  VAL150      0.2287
    139  O         36.4450   19.5560   15.2130 O.2   150  VAL150     -0.2864
    140  CB        39.3940   21.0850   14.5600 C.3   150  VAL150      0.0276
    141  CG1       39.2350   19.9710   13.5480 C.3   150  VAL150      0.0022
    142  CG2       39.9350   22.3840   13.9520 C.3   150  VAL150      0.0022
@<TRIPOS>BOND
     1    62    63   ar
     2    62    60   ar
     3    13    12    1
     4    20    18    1
     5    63    61   ar
     6    60    57   ar
     7    11    10    2
     8    12     9    1
     9   102   101    1
    10    53    52    2
    11    61    59   ar
    12    10     9    1
    13    10    14   am
    14    57    59   ar
    15    57    55   ar
    16    18    15    1
    17    18    19    1
    18     9     8    1
    19    15    14    1
    20    15    16    1
    21    67    66    2
    22    59    58   ar
    23    52    51    1
    24    54    55    1
    25    54    51    1
    26    69    68    1
    27    55    56   ar
    28    64    65    1
    29    68    65    1
    30    68    70    1
    31   101    99   ar
    32   101   100   ar
    33    99    97   ar
    34    17    16    2
    35    51    50    1
    36     4     3    2
    37    66    65    1
    38    58    56   ar
    39     8     3   am
    40   100    98   ar
    41     3     2    1
    42    97    96   ar
    43    50    45   am
    44     7     5    1
    45    98    96   ar
    46    96    95    1
    47     2     5    1
    48     2     1    1
    49    89    88   ar
    50    46    45    2
    51    28    26   am
    52     6     5    1
    53    45    44    1
    54   141   140    1
    55   110   108   am
    56    21    22    1
    57   142   140    1
    58    91    92    1
    59    88    87    1
    60    88    90   ar
    61    26    27    2
    62    26    25    1
    63    41    40    1
    64    41    42    1
    65    95    92    1
    66    92    93    1
    67    44    43    1
    68    44    47    1
    69   108   109    2
    70   108   107    1
    71   140   137    1
    72    87    84    1
    73    40    37    1
    74    49    47    1
    75    43    38   am
    76   107   104    1
    77    25    22    1
    78    22    23    1
    79   139   138    2
    80    47    48    1
    81   137   138    1
    82   137   136    1
    83    42    36    1
    84    39    38    2
    85    38    37    1
    86    93    94    2
    87    37    36    1
    88    86    85    2
    89    84    83    1
    90    84    85    1
    91    29    23   am
    92    29    30    1
    93    23    24    2
    94   131   130    2
    95   136   130   am
    96    83    81   am
    97    34    33    1
    98   104   103    1
    99   104   105    1
   100   106   105    2
   101    81    80    1
   102    81    82    2
   103   130   129    1
   104    33    30    1
   105    33    35    1
   106    80    79    1
   107   105   111   am
   108    30    31    1
   109    74    73    2
   110    31    32    2
   111    78    76    1
   112    79    73   am
   113   132   129    1
   114   132   133    1
   115    73    72    1
   116    75    72    1
   117    75    76    1
   118   129   128    1
   119   111   112    1
   120    72    71    1
   121    76    77    1
   122   112   113    1
   123   112   115    1
   124   122   123    1
   125   122   113   am
   126   133   134    1
   127   135   134    1
   128   123   124    1
   129   123   126    1
   130   124   125    2
   131   113   114    2
   132   118   120   ar
   133   118   116   ar
   134   115   116    1
   135   120   121   ar
   136   127   126    1
   137   116   117   ar
   138   121   119   ar
   139   117   119   ar
