@<TRIPOS>MOLECULE
tmp/2fcuA01.pdb
 131 124 0 0 0
SMALL
GASTEIGER

@<TRIPOS>ATOM
      1  N          5.8870   29.0000    8.1700 N.3   103  PHE103     -0.1241
      2  CA         7.2720   29.3840    8.4130 C.3   103  PHE103      0.1605
      3  C          8.1420   28.1510    8.6020 C.2   103  PHE103      0.2264
      4  O          8.3010   27.6530    9.7010 O.2   103  PHE103     -0.2867
      5  CB         7.3780   30.2760    9.6350 C.3   103  PHE103      0.0534
      6  CG         6.8070   31.6340    9.4140 C.ar  103  PHE103     -0.0203
      7  CD1        5.4860   31.9290    9.7680 C.ar  103  PHE103     -0.0042
      8  CD2        7.5840   32.6250    8.8250 C.ar  103  PHE103     -0.0042
      9  CE1        4.9710   33.1730    9.5440 C.ar  103  PHE103     -0.0003
     10  CE2        7.0740   33.8860    8.6100 C.ar  103  PHE103     -0.0003
     11  CZ         5.7590   34.1620    8.9560 C.ar  103  PHE103     -0.0000
     12  N         11.7120   26.3240    8.9140 N.3   105  LYS105     -0.1245
     13  CA        13.1670   26.5120    9.0990 C.3   105  LYS105      0.1561
     14  C         13.8190   25.1840    8.7960 C.2   105  LYS105      0.2260
     15  O         13.6630   24.2060    9.5240 O.2   105  LYS105     -0.2867
     16  CB        13.5660   26.9670   10.5120 C.3   105  LYS105      0.0271
     17  CG        13.0800   28.3220   10.9100 C.3   105  LYS105      0.0035
     18  CD        13.8420   29.4260   10.2010 C.3   105  LYS105      0.0206
     19  CE        13.3870   30.7680   10.7010 C.3   105  LYS105      0.1093
     20  NZ        13.9590   31.9130    9.9100 N.3   105  LYS105     -0.1314
     21  N         14.8390   34.3420   11.9570 N.3   112  THR112     -0.1218
     22  CA        14.0230   35.4130   11.4270 C.3   112  THR112      0.1862
     23  C         14.4710   36.7280   12.0630 C.2   112  THR112      0.2287
     24  O         14.7120   36.7800   13.2640 O.2   112  THR112     -0.2866
     25  CB        12.5300   35.1490   11.6930 C.3   112  THR112      0.1770
     26  OG1       12.2020   33.8880   11.0910 O.3   112  THR112     -0.2211
     27  CG2       11.6540   36.2780   11.1260 C.3   112  THR112      0.0375
     28  N         11.4030   41.9840   14.0320 N.3   115  HIS115     -0.1241
     29  CA        10.4080   42.7570   13.3300 C.3   115  HIS115      0.1621
     30  C          9.1710   43.0080   14.1790 C.2   115  HIS115      0.2264
     31  O          8.9220   42.3270   15.1750 O.2   115  HIS115     -0.2867
     32  CB        10.0820   42.1430   11.9580 C.3   115  HIS115      0.0745
     33  CG         9.4250   40.7990   11.9870 C.ar  115  HIS115      0.0817
     34  ND1       10.0200   39.6500   12.4790 N.ar  115  HIS115     -0.2268
     35  CD2        8.2110   40.4160   11.5140 C.ar  115  HIS115      0.1154
     36  CE1        9.1910   38.6330   12.3350 C.ar  115  HIS115      0.1986
     37  NE2        8.0870   39.0730   11.7550 N.ar  115  HIS115     -0.2212
     38  N         -1.4830   37.4050   16.1990 N.3   142  THR142     -0.1218
     39  CA        -0.8890   36.2200   15.6030 C.3   142  THR142      0.1862
     40  C         -0.9630   35.0450   16.5550 C.2   142  THR142      0.2287
     41  O         -0.6160   35.1580   17.7440 O.2   142  THR142     -0.2866
     42  CB         0.5720   36.4820   15.2040 C.3   142  THR142      0.1770
     43  OG1        0.5830   37.4550   14.1710 O.3   142  THR142     -0.2211
     44  CG2        1.2700   35.1860   14.6990 C.3   142  THR142      0.0375
     45  N          0.6950   31.4900   16.5340 N.3   144  TRP144     -0.1241
     46  CA         1.7470   30.7070   15.8770 C.3   144  TRP144      0.1605
     47  C          1.7120   29.3070   16.4930 C.2   144  TRP144      0.2264
     48  O          1.9240   29.1300   17.6980 O.2   144  TRP144     -0.2867
     49  CB         3.0900   31.3800   16.1220 C.3   144  TRP144      0.0550
     50  CG         4.2810   30.8940   15.3500 C.ar  144  TRP144      0.0003
     51  CD1        4.8190   31.4750   14.2520 C.ar  144  TRP144      0.0946
     52  CD2        5.1570   29.8220   15.7070 C.ar  144  TRP144      0.0152
     53  NE1        5.9530   30.8070   13.8740 N.ar  144  TRP144     -0.2442
     54  CE2        6.2050   29.8040   14.7610 C.ar  144  TRP144      0.0810
     55  CE3        5.1740   28.8960   16.7360 C.ar  144  TRP144      0.0012
     56  CZ2        7.2480   28.8710   14.8190 C.ar  144  TRP144      0.0191
     57  CZ3        6.1940   27.9720   16.7990 C.ar  144  TRP144      0.0001
     58  CH2        7.2340   27.9730   15.8530 C.ar  144  TRP144      0.0015
     59  N         10.7810   30.6450   18.3210 N.3   157  LEU157     -0.1245
     60  CA        10.5640   32.0770   18.4230 C.3   157  LEU157      0.1561
     61  C         11.2350   32.6910   19.6390 C.2   157  LEU157      0.2260
     62  O         11.5460   32.0030   20.6090 O.2   157  LEU157     -0.2867
     63  CB         9.0580   32.4200   18.4760 C.3   157  LEU157      0.0270
     64  CG         8.2550   31.9820   17.2360 C.3   157  LEU157      0.0019
     65  CD1        6.7910   32.4390   17.3660 C.3   157  LEU157      0.0001
     66  CD2        8.8600   32.5170   15.9480 C.3   157  LEU157      0.0001
     67  N          0.3330   36.2840   20.2110 N.3   228  PHE228     -0.1241
     68  CA         1.0320   37.5600   20.3980 C.3   228  PHE228      0.1605
     69  C          0.5780   38.6090   19.4060 C.2   228  PHE228      0.2264
     70  O          0.1330   38.2880   18.3060 O.2   228  PHE228     -0.2867
     71  CB         2.5620   37.3800   20.3350 C.3   228  PHE228      0.0534
     72  CG         3.0950   36.8550   19.0090 C.ar  228  PHE228     -0.0203
     73  CD1        3.5780   37.7240   18.0380 C.ar  228  PHE228     -0.0042
     74  CD2        3.1820   35.5020   18.7620 C.ar  228  PHE228     -0.0042
     75  CE1        4.1060   37.2370   16.8440 C.ar  228  PHE228     -0.0003
     76  CE2        3.7110   35.0100   17.5670 C.ar  228  PHE228     -0.0003
     77  CZ         4.1490   35.8870   16.6050 C.ar  228  PHE228     -0.0000
     78  N          1.2030   41.2260   16.5860 N.3   230  SER230     -0.1217
     79  CA         2.2190   41.3870   15.5070 C.3   230  SER230      0.1889
     80  C          3.1220   42.6140   15.7150 C.2   230  SER230      0.2288
     81  O          4.1990   42.7080   15.1300 O.2   230  SER230     -0.2866
     82  CB         1.5170   41.4790   14.1430 C.3   230  SER230      0.2089
     83  OG         0.6930   42.6220   14.0950 O.3   230  SER230     -0.2183
     84  N          9.4760   40.5950   17.7260 N.3   234  HIS234     -0.1226
     85  CA         9.6270   39.1520   17.6400 C.3   234  HIS234      0.1752
     86  C         10.5990   38.7560   16.5440 C.2   234  HIS234      0.2596
     87  O         10.8430   39.5050   15.6090 O.2   234  HIS234     -0.2718
     88  CB         8.2630   38.4170   17.5090 C.3   234  HIS234      0.0759
     89  CG         7.4690   38.7570   16.2820 C.ar  234  HIS234      0.0818
     90  ND1        6.8410   39.9740   16.0940 N.ar  234  HIS234     -0.2268
     91  CD2        7.1320   37.9950   15.2080 C.ar  234  HIS234      0.1154
     92  CE1        6.1770   39.9550   14.9480 C.ar  234  HIS234      0.1986
     93  NE2        6.3550   38.7720   14.3840 N.ar  234  HIS234     -0.2212
     94  N         11.1700   37.5850   16.7230 N.am  235  ALA235     -0.1966
     95  CA        12.1990   37.0640   15.8540 C.3   235  ALA235      0.1728
     96  C         12.2360   35.5440   16.0420 C.2   235  ALA235      0.2616
     97  O         11.4230   34.9950   16.7630 O.2   235  ALA235     -0.2715
     98  CB        13.5420   37.6970   16.2270 C.3   235  ALA235      0.0334
     99  N         13.1850   34.8620   15.4220 N.am  236  SER236     -0.1950
    100  CA        13.4540   33.4840   15.7800 C.3   236  SER236      0.1924
    101  C         14.9540   33.2530   15.8510 C.2   236  SER236      0.2314
    102  O         15.7670   33.9740   15.2310 O.2   236  SER236     -0.2863
    103  CB        12.8490   32.4660   14.8100 C.3   236  SER236      0.2116
    104  OG        13.7610   32.1960   13.7460 O.3   236  SER236     -0.2180
    105  N         12.0350   22.5960   11.2160 N.3   247  ARG247     -0.1245
    106  CA        11.0180   23.1810   12.0850 C.3   247  ARG247      0.1563
    107  C          9.9200   23.7670   11.2170 C.2   247  ARG247      0.2260
    108  O         10.1940   24.3800   10.1720 O.2   247  ARG247     -0.2867
    109  CB        11.6320   24.3030   12.9220 C.3   247  ARG247      0.0307
    110  CG        10.6470   25.0690   13.8040 C.3   247  ARG247      0.0489
    111  CD        10.0460   26.2880   13.0760 C.3   247  ARG247      0.2205
    112  NE        10.7890   27.5010   13.3360 N.pl3 247  ARG247     -0.0865
    113  CZ        10.4710   28.7140   12.8960 C.cat 247  ARG247      0.5346
    114  NH1        9.4660   28.8970   12.0330 N.pl3 247  ARG247      0.1354
    115  NH2       11.1630   29.7670   13.2910 N.pl3 247  ARG247      0.1354
    116  N          1.3650   30.2390   11.2470 N.3   251  ALA251     -0.1245
    117  CA         0.7820   31.4700   11.7960 C.3   251  ALA251      0.1562
    118  C         -0.6070   31.6590   11.2260 C.2   251  ALA251      0.2260
    119  O         -0.7860   31.6300    9.9940 O.2   251  ALA251     -0.2867
    120  CB         1.6320   32.7400   11.4790 C.3   251  ALA251      0.0290
    121  N         -3.6210   34.6860   11.5430 N.3   253  ARG253     -0.1245
    122  CA        -3.6830   36.0980   11.9240 C.3   253  ARG253      0.1563
    123  C         -5.1420   36.5670   11.9880 C.2   253  ARG253      0.2260
    124  O         -5.9270   36.2850   11.0870 O.2   253  ARG253     -0.2867
    125  CB        -2.8530   36.9660   10.9800 C.3   253  ARG253      0.0307
    126  CG        -1.4110   36.4520   10.7900 C.3   253  ARG253      0.0489
    127  CD        -0.4850   37.5110   10.2230 C.3   253  ARG253      0.2205
    128  NE         0.7580   36.9450    9.6700 N.pl3 253  ARG253     -0.0865
    129  CZ         1.7610   36.4240   10.3930 C.cat 253  ARG253      0.5346
    130  NH1        2.8370   35.9390    9.7880 N.pl3 253  ARG253      0.1354
    131  NH2        1.6930   36.3260   11.7060 N.pl3 253  ARG253      0.1354
@<TRIPOS>BOND
     1     1     2    1
     2     2     3    1
     3     2     5    1
     4     3     4    2
     5    10     8   ar
     6    10    11   ar
     7    14    13    1
     8    14    15    2
     9     8     6   ar
    10    12    13    1
    11    11     9   ar
    12    13    16    1
    13     6     5    1
    14     6     7   ar
    15     9     7   ar
    16   128   127    1
    17   128   129    2
    18   130   129    1
    19    20    19    1
    20   119   118    2
    21   108   107    2
    22    18    19    1
    23    18    17    1
    24   127   126    1
    25   129   131    1
    26    16    17    1
    27   126   125    1
    28   125   122    1
    29   124   123    2
    30    26    25    1
    31    27    25    1
    32   105   106    1
    33   107   106    1
    34   118   117    1
    35   116   117    1
    36    22    25    1
    37    22    21    1
    38    22    23    1
    39   120   117    1
    40    35    37   ar
    41    35    33   ar
    42   121   122    1
    43    37    36   ar
    44   122   123    1
    45    32    33    1
    46    32    29    1
    47    33    34   ar
    48   114   113    1
    49    23    24    2
    50   106   109    1
    51    36    34   ar
    52   113   115    1
    53   113   112    2
    54   109   110    1
    55   111   112    1
    56   111   110    1
    57    29    28    1
    58    29    30    1
    59   104   103    1
    60    53    51   ar
    61    53    54   ar
    62    83    82    1
    63    82    79    1
    64    43    42    1
    65    30    31    2
    66    51    50   ar
    67    93    92   ar
    68    93    91   ar
    69    44    42    1
    70    54    56   ar
    71    54    52   ar
    72   103   100    1
    73    56    58   ar
    74    92    90   ar
    75    81    80    2
    76    42    39    1
    77    91    89   ar
    78   102   101    2
    79    50    52   ar
    80    50    49    1
    81    99   100    1
    82    99    96   am
    83    79    80    1
    84    79    78    1
    85    39    38    1
    86    39    40    1
    87    87    86    2
    88    52    55   ar
    89   100   101    1
    90    58    57   ar
    91    95    96    1
    92    95    98    1
    93    95    94    1
    94    46    49    1
    95    46    47    1
    96    46    45    1
    97    66    64    1
    98    96    97    2
    99    90    89   ar
   100    89    88    1
   101    47    48    2
   102    86    94   am
   103    86    85    1
   104    40    41    2
   105    77    75   ar
   106    77    76   ar
   107    55    57   ar
   108    75    73   ar
   109    64    65    1
   110    64    63    1
   111    88    85    1
   112    76    74   ar
   113    85    84    1
   114    73    72   ar
   115    70    69    2
   116    59    60    1
   117    60    63    1
   118    60    61    1
   119    74    72   ar
   120    72    71    1
   121    69    68    1
   122    61    62    2
   123    67    68    1
   124    71    68    1
