@<TRIPOS>MOLECULE
tmp/2fcuA00.pdb
 149 146 0 0 0
SMALL
GASTEIGER

@<TRIPOS>ATOM
      1  N         -5.2790   37.3300   30.8090 N.3    11  ARG11      -0.1245
      2  CA        -5.5660   38.5500   30.0740 C.3    11  ARG11       0.1563
      3  C         -4.6600   39.7240   30.5250 C.2    11  ARG11       0.2260
      4  O         -4.1200   40.4720   29.6900 O.2    11  ARG11      -0.2867
      5  CB        -7.0640   38.8880   30.1580 C.3    11  ARG11       0.0307
      6  CG        -7.4570   40.0980   29.3770 C.3    11  ARG11       0.0489
      7  CD        -7.5100   39.8460   27.8770 C.3    11  ARG11       0.2205
      8  NE        -7.7480   41.0770   27.1030 N.pl3  11  ARG11      -0.0865
      9  CZ        -6.8340   42.0050   26.8480 C.cat  11  ARG11       0.5346
     10  NH1       -7.1430   43.0860   26.1290 N.pl3  11  ARG11       0.1354
     11  NH2       -5.6090   41.8680   27.3200 N.pl3  11  ARG11       0.1354
     12  N         -1.7300   41.6410   28.3360 N.3    15  GLU15      -0.1245
     13  CA        -1.6850   43.0910   28.1730 C.3    15  GLU15       0.1567
     14  C         -0.2930   43.6810   28.4790 C.2    15  GLU15       0.2260
     15  O          0.1540   44.6310   27.8180 O.2    15  GLU15      -0.2867
     16  CB        -2.7340   43.7700   29.0540 C.3    15  GLU15       0.0388
     17  CG        -3.0550   45.1960   28.5860 C.3    15  GLU15       0.1160
     18  CD        -3.8470   45.2720   27.2730 C.2    15  GLU15       0.3649
     19  OE1       -4.2120   44.2140   26.6950 O.co2  15  GLU15      -0.2457
     20  OE2       -4.0720   46.4100   26.7990 O.co2  15  GLU15      -0.2457
     21  N         -9.4180   38.6480   23.7400 N.3    90  ILE90      -0.1231
     22  CA        -8.6660   39.8320   23.3720 C.3    90  ILE90       0.1692
     23  C         -9.3860   40.7110   22.3430 C.2    90  ILE90       0.2592
     24  O         -9.3900   41.9340   22.4730 O.2    90  ILE90      -0.2718
     25  CB        -7.2690   39.4140   22.8130 C.3    90  ILE90       0.0266
     26  CG1       -6.4650   38.6190   23.8580 C.3    90  ILE90       0.0019
     27  CG2       -6.4550   40.6260   22.3170 C.3    90  ILE90       0.0020
     28  CD1       -5.3570   37.7740   23.2400 C.3    90  ILE90       0.0001
     29  N         -9.9860   40.0950   21.3190 N.am   91  LEU91      -0.1966
     30  CA       -10.5220   40.8560   20.1860 C.3    91  LEU91       0.1728
     31  C        -12.0460   41.0370   20.1450 C.2    91  LEU91       0.2617
     32  O        -12.5340   41.7290   19.2780 O.2    91  LEU91      -0.2715
     33  CB       -10.0420   40.2190   18.8580 C.3    91  LEU91       0.0311
     34  CG        -8.5290   40.3260   18.6090 C.3    91  LEU91       0.0022
     35  CD1       -8.1880   39.7350   17.2430 C.3    91  LEU91       0.0001
     36  CD2       -7.9760   41.7450   18.7190 C.3    91  LEU91       0.0001
     37  N        -12.7730   40.4310   21.0800 N.am   92  GLY92      -0.1941
     38  CA       -14.2140   40.6210   21.1730 C.3    92  GLY92       0.1998
     39  C        -15.0130   39.6170   20.3780 C.2    92  GLY92       0.2480
     40  O        -14.4840   38.6130   19.9270 O.2    92  GLY92      -0.2729
     41  N        -16.3240   39.8930   20.2140 N.am   93  PRO93      -0.2726
     42  CA       -17.3180   38.9440   19.7650 C.3    93  PRO93       0.1402
     43  C        -17.3730   38.6430   18.2780 C.2    93  PRO93       0.2269
     44  O        -18.0490   37.6830   17.8990 O.2    93  PRO93      -0.2865
     45  CB       -18.6300   39.6000   20.2280 C.3    93  PRO93       0.0296
     46  CG       -18.3870   41.0080   20.1940 C.3    93  PRO93       0.0237
     47  CD       -16.9360   41.1990   20.5600 C.3    93  PRO93       0.0939
     48  N          2.4060   46.3520   11.7630 N.3   118  ASP118     -0.1239
     49  CA         1.2300   47.0930   12.1960 C.3   118  ASP118      0.1674
     50  C          0.2190   47.1680   11.0610 C.2   118  ASP118      0.2266
     51  O         -0.8850   46.6680   11.1850 O.2   118  ASP118     -0.2867
     52  CB         1.6530   48.4940   12.6510 C.3   118  ASP118      0.1410
     53  CG         0.4950   49.3920   13.0410 C.2   118  ASP118      0.3668
     54  OD1       -0.6820   48.9770   13.0720 O.co2 118  ASP118     -0.2456
     55  OD2        0.7960   50.5830   13.2890 O.co2 118  ASP118     -0.2456
     56  N         -7.2530   49.7480   11.0210 N.3   131  TRP131     -0.1241
     57  CA        -8.1000   49.8860   12.1890 C.3   131  TRP131      0.1605
     58  C         -8.7800   51.2670   12.1560 C.2   131  TRP131      0.2264
     59  O         -8.3430   52.1510   11.4140 O.2   131  TRP131     -0.2867
     60  CB        -7.2480   49.7850   13.4500 C.3   131  TRP131      0.0550
     61  CG        -6.8000   48.4090   13.7840 C.ar  131  TRP131      0.0003
     62  CD1       -5.8560   47.6660   13.1300 C.ar  131  TRP131      0.0946
     63  CD2       -7.2480   47.6150   14.8760 C.ar  131  TRP131      0.0152
     64  NE1       -5.7060   46.4460   13.7390 N.ar  131  TRP131     -0.2442
     65  CE2       -6.5450   46.3800   14.8150 C.ar  131  TRP131      0.0810
     66  CE3       -8.1900   47.8010   15.8830 C.ar  131  TRP131      0.0012
     67  CZ2       -6.7410   45.3780   15.7450 C.ar  131  TRP131      0.0191
     68  CZ3       -8.3810   46.8040   16.8090 C.ar  131  TRP131      0.0001
     69  CH2       -7.6550   45.5990   16.7330 C.ar  131  TRP131      0.0015
     70  N         -6.3950   54.1840   18.7690 N.3   136  GLU136     -0.1231
     71  CA        -4.9330   54.0240   18.8950 C.3   136  GLU136      0.1699
     72  C         -4.4280   52.6030   18.6430 C.2   136  GLU136      0.2592
     73  O         -3.2350   52.3380   18.8010 O.2   136  GLU136     -0.2718
     74  CB        -4.4680   54.4600   20.2900 C.3   136  GLU136      0.0402
     75  CG        -5.1080   53.7210   21.4340 C.3   136  GLU136      0.1161
     76  CD        -4.5180   54.0720   22.7920 C.2   136  GLU136      0.3649
     77  OE1       -3.4880   54.7810   22.8390 O.co2 136  GLU136     -0.2457
     78  OE2       -5.1020   53.6350   23.8100 O.co2 136  GLU136     -0.2457
     79  N         -5.3210   51.7230   18.2070 N.am  137  PHE137     -0.1962
     80  CA        -5.0140   50.3060   18.0400 C.3   137  PHE137      0.1771
     81  C         -4.4030   50.0090   16.6760 C.2   137  PHE137      0.2620
     82  O         -4.6420   50.7170   15.6980 O.2   137  PHE137     -0.2715
     83  CB        -6.3000   49.4850   18.1890 C.3   137  PHE137      0.0574
     84  CG        -7.1100   49.8100   19.4150 C.ar  137  PHE137     -0.0200
     85  CD1       -8.4820   49.9920   19.3220 C.ar  137  PHE137     -0.0042
     86  CD2       -6.5110   49.9150   20.6600 C.ar  137  PHE137     -0.0042
     87  CE1       -9.2360   50.2770   20.4370 C.ar  137  PHE137     -0.0003
     88  CE2       -7.2630   50.2010   21.7870 C.ar  137  PHE137     -0.0003
     89  CZ        -8.6380   50.3730   21.6700 C.ar  137  PHE137     -0.0000
     90  N         -3.6500   48.9110   16.5920 N.am  138  GLY138     -0.1954
     91  CA        -3.0480   48.5180   15.3470 C.3   138  GLY138      0.1869
     92  C         -2.6340   47.0620   15.3580 C.2   138  GLY138      0.2309
     93  O         -2.7090   46.4030   16.3790 O.2   138  GLY138     -0.2863
     94  N          5.0910   45.9430   22.3840 N.3   164  GLN164     -0.1231
     95  CA         4.0080   45.9780   21.4120 C.3   164  GLN164      0.1698
     96  C          3.3020   47.3230   21.2710 C.2   164  GLN164      0.2592
     97  O          2.4710   47.4710   20.3820 O.2   164  GLN164     -0.2718
     98  CB         2.9930   44.8680   21.7280 C.3   164  GLN164      0.0381
     99  CG         2.0420   45.0990   22.8910 C.3   164  GLN164      0.0905
    100  CD         2.5950   44.7610   24.2560 C.2   164  GLN164      0.2608
    101  OE1        3.8090   44.5980   24.4440 O.2   164  GLN164     -0.2717
    102  NE2        1.7170   44.6850   25.2270 N.am  164  GLN164     -0.0878
    103  N          3.6090   48.2900   22.1450 N.am  165  ASN165     -0.1974
    104  CA         2.8890   49.5700   22.1620 C.3   165  ASN165      0.1688
    105  C          3.6340   50.6890   21.4450 C.2   165  ASN165      0.2292
    106  O          3.1310   51.8110   21.3560 O.2   165  ASN165     -0.2864
    107  CB         2.5180   49.9780   23.5950 C.3   165  ASN165      0.1181
    108  CG         1.6980   48.9160   24.3030 C.2   165  ASN165      0.2629
    109  OD1        0.6650   48.5070   23.7980 O.2   165  ASN165     -0.2716
    110  ND2        2.1610   48.4480   25.4550 N.am  165  ASN165     -0.0877
    111  N          0.6540   39.8640   19.8180 N.3   229  TRP229     -0.1241
    112  CA         0.4710   40.9910   18.8860 C.3   229  TRP229      0.1605
    113  C          1.5840   41.0360   17.8460 C.2   229  TRP229      0.2264
    114  O          2.7820   40.9090   18.1620 O.2   229  TRP229     -0.2867
    115  CB         0.4440   42.3500   19.6240 C.3   229  TRP229      0.0550
    116  CG        -0.8790   42.6960   20.2250 C.ar  229  TRP229      0.0003
    117  CD1       -1.1860   42.7730   21.5490 C.ar  229  TRP229      0.0946
    118  CD2       -2.0960   43.0070   19.5160 C.ar  229  TRP229      0.0152
    119  NE1       -2.5040   43.1190   21.7090 N.ar  229  TRP229     -0.2442
    120  CE2       -3.0910   43.2540   20.4860 C.ar  229  TRP229      0.0810
    121  CE3       -2.4330   43.1300   18.1620 C.ar  229  TRP229      0.0012
    122  CZ2       -4.4090   43.6080   20.1400 C.ar  229  TRP229      0.0191
    123  CZ3       -3.7470   43.4810   17.8270 C.ar  229  TRP229      0.0001
    124  CH2       -4.7050   43.7100   18.8020 C.ar  229  TRP229      0.0015
    125  N          2.6480   43.5510   16.5250 N.3   231  THR231     -0.1218
    126  CA         3.3770   44.7670   16.8820 C.3   231  THR231      0.1862
    127  C          4.4220   44.5030   17.9740 C.2   231  THR231      0.2287
    128  O          5.2530   45.3560   18.2330 O.2   231  THR231     -0.2866
    129  CB         2.3860   45.8320   17.3620 C.3   231  THR231      0.1770
    130  OG1        1.4530   45.2270   18.2500 O.3   231  THR231     -0.2211
    131  CG2        1.6050   46.4570   16.1850 C.3   231  THR231      0.0375
    132  N        -10.4070   42.0240   14.6710 N.3   256  PRO256     -0.2116
    133  CA       -11.8740   42.1950   14.8110 C.3   256  PRO256      0.1372
    134  C        -12.4900   42.4930   13.4400 C.2   256  PRO256      0.2244
    135  O        -11.8230   43.0530   12.5680 O.2   256  PRO256     -0.2868
    136  CB       -11.9930   43.4300   15.7180 C.3   256  PRO256      0.0268
    137  CG       -10.6460   43.5610   16.3700 C.3   256  PRO256      0.0207
    138  CD        -9.6430   43.0420   15.4270 C.3   256  PRO256      0.0892
    139  N        -14.5350   44.6380   12.3490 N.3   258  PHE258     -0.1241
    140  CA       -14.5670   46.0390   11.9350 C.3   258  PHE258      0.1605
    141  C        -13.2780   46.5220   11.2710 C.2   258  PHE258      0.2264
    142  O        -13.2630   47.5700   10.6230 O.2   258  PHE258     -0.2867
    143  CB       -14.9740   46.9780   13.0770 C.3   258  PHE258      0.0534
    144  CG       -14.0960   46.8950   14.2940 C.ar  258  PHE258     -0.0203
    145  CD1      -14.5430   46.2710   15.4450 C.ar  258  PHE258     -0.0042
    146  CD2      -12.8430   47.4440   14.2870 C.ar  258  PHE258     -0.0042
    147  CE1      -13.7340   46.1920   16.5900 C.ar  258  PHE258     -0.0003
    148  CE2      -12.0060   47.3310   15.4340 C.ar  258  PHE258     -0.0003
    149  CZ       -12.4820   46.7330   16.5670 C.ar  258  PHE258     -0.0000
@<TRIPOS>BOND
     1   142   141    2
     2    56    57    1
     3    50    51    2
     4    50    49    1
     5   141   140    1
     6    59    58    2
     7    48    49    1
     8   140   139    1
     9   140   143    1
    10    58    57    1
    11    57    60    1
    12    49    52    1
    13   135   134    2
    14    52    53    1
    15    53    54   ar
    16    53    55   ar
    17   143   144    1
    18    62    64   ar
    19    62    61   ar
    20   134   133    1
    21    60    61    1
    22    64    65   ar
    23    61    63   ar
    24   146   144   ar
    25   146   148   ar
    26   144   145   ar
    27   132   133    1
    28   132   138    1
    29   133   136    1
    30    65    63   ar
    31    65    67   ar
    32    63    66   ar
    33    91    92    1
    34    91    90    1
    35    92    93    2
    36   138   137    1
    37   148   149   ar
    38   145   147   ar
    39    82    81    2
    40   136   137    1
    41    67    69   ar
    42    66    68   ar
    43   131   129    1
    44   125   126    1
    45   149   147   ar
    46    90    81   am
    47    81    80    1
    48    69    68   ar
    49   126   129    1
    50   126   127    1
    51    35    34    1
    52   129   130    1
    53   123   121   ar
    54   123   124   ar
    55   113   114    2
    56   113   112    1
    57    44    43    2
    58   127   128    2
    59    80    83    1
    60    80    79    1
    61   121   118   ar
    62    83    84    1
    63    79    72   am
    64    43    42    1
    65    34    36    1
    66    34    33    1
    67    72    73    2
    68    72    71    1
    69    70    71    1
    70   124   122   ar
    71    33    30    1
    72   112   115    1
    73   112   111    1
    74    71    74    1
    75    32    31    2
    76    85    84   ar
    77    85    87   ar
    78    84    86   ar
    79   118   116   ar
    80   118   120   ar
    81   115   116    1
    82    42    41    1
    83    42    45    1
    84    40    39    2
    85   122   120   ar
    86    31    30    1
    87    31    37   am
    88    30    29    1
    89    46    45    1
    90    46    47    1
    91    41    39   am
    92    41    47    1
    93   116   117   ar
    94    74    75    1
    95    39    38    1
    96    97    96    2
    97    87    89   ar
    98   120   119   ar
    99    86    88   ar
   100    37    38    1
   101    96    95    1
   102    96   103   am
   103    29    23   am
   104   106   105    2
   105    95    98    1
   106    95    94    1
   107    75    76    1
   108   105   104    1
   109   117   119   ar
   110    89    88   ar
   111    98    99    1
   112   103   104    1
   113   104   107    1
   114    27    25    1
   115    23    24    2
   116    23    22    1
   117    76    77   ar
   118    76    78   ar
   119    25    22    1
   120    25    26    1
   121    99   100    1
   122    28    26    1
   123    22    21    1
   124   107   108    1
   125   109   108    2
   126   100   101    2
   127   100   102   am
   128   108   110   am
   129    10     9    1
   130    19    18   ar
   131    20    18   ar
   132     9     8    2
   133     9    11    1
   134     8     7    1
   135    18    17    1
   136    15    14    2
   137     7     6    1
   138    13    12    1
   139    13    14    1
   140    13    16    1
   141    17    16    1
   142     6     5    1
   143     4     3    2
   144     2     5    1
   145     2     3    1
   146     2     1    1
