@<TRIPOS>MOLECULE
tmp/2fdaA00.pdb
 166 164 0 0 0
SMALL
GASTEIGER

@<TRIPOS>ATOM
      1  N          6.5370   53.6680   33.2430 N.3    28  LEU28      -0.1231
      2  CA         7.9380   53.8470   32.8440 C.3    28  LEU28       0.1693
      3  C          8.3560   52.7350   31.8860 C.2    28  LEU28       0.2592
      4  O          8.7320   53.0000   30.7470 O.2    28  LEU28      -0.2718
      5  CB         8.8470   53.8190   34.0780 C.3    28  LEU28       0.0284
      6  CG        10.3300   53.7400   33.7990 C.3    28  LEU28       0.0019
      7  CD1       10.7210   54.9580   32.9650 C.3    28  LEU28       0.0001
      8  CD2       11.0980   53.6350   35.1140 C.3    28  LEU28       0.0001
      9  N          8.2860   51.4910   32.3440 N.am   29  CYS29      -0.1970
     10  CA         8.7220   50.3700   31.5190 C.3    29  CYS29       0.1712
     11  C          7.9670   49.1070   31.8390 C.2    29  CYS29       0.2296
     12  O          7.1820   49.0680   32.7860 O.2    29  CYS29      -0.2864
     13  CB        10.1810   50.1150   31.7750 C.3    29  CYS29       0.0983
     14  SG        11.2790   51.0000   30.6710 S.3    29  CYS29      -0.0798
     15  N         18.2480   49.8010   30.4850 N.3    44  HIS44      -0.1226
     16  CA        18.1720   51.1620   29.9520 C.3    44  HIS44       0.1752
     17  C         16.9090   51.8580   30.4560 C.2    44  HIS44       0.2596
     18  O         16.7500   53.0850   30.3410 O.2    44  HIS44      -0.2718
     19  CB        18.1870   51.1310   28.4170 C.3    44  HIS44       0.0759
     20  CG        16.8520   50.8450   27.8080 C.ar   44  HIS44       0.0818
     21  ND1       16.5090   49.6060   27.3140 N.ar   44  HIS44      -0.2268
     22  CD2       15.7800   51.6450   27.5980 C.ar   44  HIS44       0.1154
     23  CE1       15.2830   49.6540   26.8230 C.ar   44  HIS44       0.1986
     24  NE2       14.8200   50.8810   26.9820 N.ar   44  HIS44      -0.2212
     25  N         16.0030   51.0700   31.0220 N.am   45  CYS45      -0.1970
     26  CA        14.7910   51.6420   31.6080 C.3    45  CYS45       0.1712
     27  C         15.0730   52.5360   32.8170 C.2    45  CYS45       0.2296
     28  O         14.2040   53.2850   33.2530 O.2    45  CYS45      -0.2864
     29  CB        13.8220   50.5410   32.0790 C.3    45  CYS45       0.0983
     30  SG        12.8180   49.7110   30.8290 S.3    45  CYS45      -0.0798
     31  N         21.4820   50.1570   25.3930 N.3    88  ALA88      -0.1231
     32  CA        20.6470   49.1160   24.7910 C.3    88  ALA88       0.1694
     33  C         21.2810   48.6270   23.5030 C.2    88  ALA88       0.2591
     34  O         21.4710   47.4240   23.3220 O.2    88  ALA88      -0.2718
     35  CB        19.2400   49.6710   24.5140 C.3    88  ALA88       0.0304
     36  N         21.6330   49.5650   22.6290 N.am   89  GLU89      -0.1979
     37  CA        22.1640   49.2210   21.3110 C.3    89  GLU89       0.1602
     38  C         23.5010   48.5180   21.4150 C.2    89  GLU89       0.2287
     39  O         23.9930   47.9910   20.4200 O.2    89  GLU89      -0.2864
     40  CB        22.3120   50.4720   20.4460 C.3    89  GLU89       0.0415
     41  CG        20.9870   51.0080   19.9260 C.3    89  GLU89       0.1163
     42  CD        21.0680   52.4770   19.5240 C.2    89  GLU89       0.3649
     43  OE1       21.4360   52.7660   18.3630 O.co2  89  GLU89      -0.2457
     44  OE2       20.7300   53.3160   20.3810 O.co2  89  GLU89      -0.2457
     45  N          5.1360   45.1510   15.9890 N.3   182  ASP182     -0.1225
     46  CA         6.4090   45.3620   16.6790 C.3   182  ASP182      0.1805
     47  C          6.1370   45.9360   18.0640 C.2   182  ASP182      0.2598
     48  O          5.0480   46.4440   18.3430 O.2   182  ASP182     -0.2718
     49  CB         7.2710   46.3410   15.8610 C.3   182  ASP182      0.1424
     50  CG         8.7460   46.3450   16.2730 C.2   182  ASP182      0.3668
     51  OD1        9.1460   45.5580   17.1600 O.co2 182  ASP182     -0.2456
     52  OD2        9.5140   47.1470   15.6890 O.co2 182  ASP182     -0.2456
     53  N          7.1290   45.8580   18.9380 N.am  183  ALA183     -0.1966
     54  CA         7.0820   46.6190   20.1730 C.3   183  ALA183      0.1728
     55  C          7.3830   48.0820   19.8390 C.2   183  ALA183      0.2616
     56  O          7.8480   48.3850   18.7390 O.2   183  ALA183     -0.2715
     57  CB         8.1060   46.0700   21.1630 C.3   183  ALA183      0.0334
     58  N          7.1200   48.9810   20.7840 N.am  184  CYS184     -0.1954
     59  CA         7.4070   50.4000   20.5970 C.3   184  CYS184      0.1843
     60  C          7.6200   51.0520   21.9670 C.2   184  CYS184      0.2625
     61  O          7.7400   50.3560   22.9710 O.2   184  CYS184     -0.2714
     62  CB         6.2430   51.0740   19.8650 C.3   184  CYS184      0.0997
     63  SG         6.6600   52.6220   19.0100 S.3   184  CYS184     -0.0797
     64  N          7.6630   52.3820   22.0020 N.am  185  LYS185     -0.1963
     65  CA         8.0370   53.0980   23.2180 C.3   185  LYS185      0.1728
     66  C          7.0970   52.8180   24.3920 C.2   185  LYS185      0.2616
     67  O          5.8780   52.9520   24.2760 O.2   185  LYS185     -0.2715
     68  CB         8.0960   54.6050   22.9460 C.3   185  LYS185      0.0311
     69  CG         8.5050   55.4260   24.1630 C.3   185  LYS185      0.0038
     70  CD         9.3410   56.6490   23.7810 C.3   185  LYS185      0.0206
     71  CE         9.8440   57.3920   25.0120 C.3   185  LYS185      0.1093
     72  NZ         9.4240   58.8220   25.0020 N.3   185  LYS185     -0.1314
     73  N          7.6770   52.4400   25.5290 N.am  186  GLY186     -0.1955
     74  CA         6.8680   52.0560   26.6730 C.3   186  GLY186      0.1869
     75  C          6.7940   50.5510   26.8660 C.2   186  GLY186      0.2309
     76  O          6.4340   50.0760   27.9460 O.2   186  GLY186     -0.2863
     77  N          9.4870   48.7110   26.4350 N.3   188  SER188     -0.1217
     78  CA        10.8290   48.3910   26.9180 C.3   188  SER188      0.1889
     79  C         10.7790   47.6160   28.2270 C.2   188  SER188      0.2288
     80  O          9.9980   47.9410   29.1240 O.2   188  SER188     -0.2866
     81  CB        11.6370   49.6710   27.1530 C.3   188  SER188      0.2089
     82  OG        12.1530   50.2080   25.9460 O.3   188  SER188     -0.2183
     83  N         12.2580   43.1580   25.5850 N.3   206  THR206     -0.1203
     84  CA        12.1420   44.2710   24.6550 C.3   206  THR206      0.1994
     85  C         13.2010   45.3240   24.9660 C.2   206  THR206      0.2619
     86  O         13.3130   45.7960   26.0970 O.2   206  THR206     -0.2717
     87  CB        10.7410   44.9110   24.7350 C.3   206  THR206      0.1784
     88  OG1        9.7510   43.9180   24.4350 O.3   206  THR206     -0.2211
     89  CG2       10.6160   46.0590   23.7360 C.3   206  THR206      0.0376
     90  N         13.9850   45.6800   23.9540 N.am  207  SER207     -0.1937
     91  CA        15.1410   46.5380   24.1620 C.3   207  SER207      0.2055
     92  C         15.1040   47.7970   23.2840 C.2   207  SER207      0.2643
     93  O         14.8940   48.9040   23.7800 O.2   207  SER207     -0.2714
     94  CB        16.4120   45.7400   23.8900 C.3   207  SER207      0.2130
     95  OG        17.5620   46.4890   24.2260 O.3   207  SER207     -0.2179
     96  N         15.3000   47.6300   21.9810 N.am  208  TRP208     -0.1959
     97  CA        15.3470   48.7850   21.0880 C.3   208  TRP208      0.1771
     98  C         14.9640   48.4370   19.6590 C.2   208  TRP208      0.2620
     99  O         14.7370   47.2690   19.3260 O.2   208  TRP208     -0.2715
    100  CB        16.7500   49.4040   21.1080 C.3   208  TRP208      0.0590
    101  CG        17.8470   48.4740   20.6330 C.ar  208  TRP208      0.0006
    102  CD1       18.4370   47.4650   21.3450 C.ar  208  TRP208      0.0946
    103  CD2       18.4920   48.4840   19.3500 C.ar  208  TRP208      0.0152
    104  NE1       19.4060   46.8480   20.5850 N.ar  208  TRP208     -0.2442
    105  CE2       19.4560   47.4540   19.3550 C.ar  208  TRP208      0.0810
    106  CE3       18.3440   49.2650   18.1930 C.ar  208  TRP208      0.0012
    107  CZ2       20.2750   47.1870   18.2450 C.ar  208  TRP208      0.0191
    108  CZ3       19.1630   48.9960   17.0900 C.ar  208  TRP208      0.0001
    109  CH2       20.1080   47.9680   17.1270 C.ar  208  TRP208      0.0015
    110  N         14.8860   49.4660   18.8200 N.am  209  GLY209     -0.1940
    111  CA        14.7590   49.2600   17.3900 C.3   209  GLY209      0.2014
    112  C         14.8080   50.5930   16.6710 C.2   209  GLY209      0.2639
    113  O         14.7170   51.6510   17.3070 O.2   209  GLY209     -0.2714
    114  N         14.9500   50.5640   15.3500 N.am  210  GLU210     -0.1963
    115  CA        14.8740   51.8030   14.5880 C.3   210  GLU210      0.1733
    116  C         13.4200   52.1180   14.2680 C.2   210  GLU210      0.2617
    117  O         12.8160   51.4850   13.4070 O.2   210  GLU210     -0.2715
    118  CB        15.6750   51.6960   13.2910 C.3   210  GLU210      0.0429
    119  CG        15.7600   53.0180   12.5450 C.3   210  GLU210      0.1163
    120  CD        16.1910   54.1560   13.4550 C.2   210  GLU210      0.3649
    121  OE1       17.2610   54.0420   14.0830 O.co2 210  GLU210     -0.2457
    122  OE2       15.4590   55.1620   13.5470 O.co2 210  GLU210     -0.2457
    123  N         12.8590   53.0970   14.9670 N.am  211  GLY211     -0.1940
    124  CA        11.4400   53.3700   14.8330 C.3   211  GLY211      0.2014
    125  C         10.6190   52.2160   15.3910 C.2   211  GLY211      0.2639
    126  O         11.0820   51.4770   16.2670 O.2   211  GLY211     -0.2714
    127  N          9.4030   52.0550   14.8800 N.am  212  CYS212     -0.1967
    128  CA         8.5200   50.9800   15.3270 C.3   212  CYS212      0.1712
    129  C          7.7530   50.3600   14.1590 C.2   212  CYS212      0.2296
    130  O          7.0790   51.0670   13.4160 O.2   212  CYS212     -0.2864
    131  CB         7.5220   51.5240   16.3490 C.3   212  CYS212      0.0983
    132  SG         8.2800   52.1130   17.8960 S.3   212  CYS212     -0.0798
    133  N         13.0300   46.3330    9.4620 N.3   217  ARG217     -0.1245
    134  CA        13.5780   46.8560   10.7040 C.3   217  ARG217      0.1563
    135  C         12.9980   46.1070   11.9040 C.2   217  ARG217      0.2260
    136  O         12.1860   46.6440   12.6530 O.2   217  ARG217     -0.2867
    137  CB        13.2600   48.3560   10.8150 C.3   217  ARG217      0.0307
    138  CG        14.0010   49.2630    9.8190 C.3   217  ARG217      0.0489
    139  CD        15.4540   49.4030   10.2750 C.3   217  ARG217      0.2205
    140  NE        16.1370   50.5120    9.6060 N.pl3 217  ARG217     -0.0865
    141  CZ        17.4040   50.8580    9.8470 C.cat 217  ARG217      0.5346
    142  NH1       18.1510   50.1760   10.7260 N.pl3 217  ARG217      0.1354
    143  NH2       17.9380   51.9240    9.2570 N.pl3 217  ARG217      0.1354
    144  N         12.4040   44.3430   15.5880 N.3   219  GLY219     -0.1210
    145  CA        12.7310   44.7570   16.9480 C.3   219  GLY219      0.1956
    146  C         13.8660   43.9410   17.5320 C.2   219  GLY219      0.2612
    147  O         14.0040   42.7440   17.2320 O.2   219  GLY219     -0.2717
    148  N         14.6750   44.5870   18.3620 N.am  220  VAL220     -0.1965
    149  CA        15.8250   43.9310   18.9580 C.3   220  VAL220      0.1727
    150  C         15.5620   43.6860   20.4370 C.2   220  VAL220      0.2616
    151  O         15.0890   44.5670   21.1500 O.2   220  VAL220     -0.2715
    152  CB        17.1060   44.7810   18.7780 C.3   220  VAL220      0.0290
    153  CG1       18.3220   44.0030   19.2880 C.3   220  VAL220      0.0023
    154  CG2       17.2900   45.1480   17.3080 C.3   220  VAL220      0.0023
    155  N         15.8430   42.4640   20.8710 N.am  221  TYR221     -0.1974
    156  CA        15.5400   42.0150   22.2250 C.3   221  TYR221      0.1639
    157  C         16.7980   41.4420   22.8660 C.2   221  TYR221      0.2290
    158  O         17.6820   40.9350   22.1690 O.2   221  TYR221     -0.2864
    159  CB        14.4520   40.9330   22.1950 C.3   221  TYR221      0.0560
    160  CG        13.1510   41.3990   21.5920 C.ar  221  TYR221     -0.0198
    161  CD1       12.9940   41.4970   20.2130 C.ar  221  TYR221     -0.0009
    162  CD2       12.0700   41.7430   22.4000 C.ar  221  TYR221     -0.0009
    163  CE1       11.7890   41.9280   19.6560 C.ar  221  TYR221      0.0417
    164  CE2       10.8700   42.1720   21.8520 C.ar  221  TYR221      0.0417
    165  CZ        10.7340   42.2680   20.4820 C.ar  221  TYR221      0.1957
    166  OH         9.5540   42.7480   19.9480 O.3   221  TYR221     -0.2866
@<TRIPOS>BOND
     1   143   141    1
     2   133   134    1
     3   140   141    2
     4   140   139    1
     5   138   139    1
     6   138   137    1
     7   141   142    1
     8   134   137    1
     9   134   135    1
    10   135   136    2
    11   119   118    1
    12   119   120    1
    13   118   115    1
    14   117   116    2
    15   130   129    2
    16   120   122   ar
    17   120   121   ar
    18   129   128    1
    19   116   115    1
    20   116   123   am
    21   115   114    1
    22   124   123    1
    23   124   125    1
    24   127   128    1
    25   127   125   am
    26   128   131    1
    27   114   112   am
    28   125   126    2
    29   144   145    1
    30    52    50   ar
    31    49    50    1
    32    49    46    1
    33    45    46    1
    34    50    51   ar
    35   131   132    1
    36   112   113    2
    37   112   111    1
    38    46    47    1
    39   145   146    1
    40   108   109   ar
    41   108   106   ar
    42   109   107   ar
    43   147   146    2
    44   154   152    1
    45   111   110    1
    46   146   148   am
    47   132    63    1
    48    47    48    2
    49    47    53   am
    50   106   103   ar
    51   107   105   ar
    52   148   149    1
    53    43    42   ar
    54    56    55    2
    55   152   149    1
    56   152   153    1
    57   110    98   am
    58    53    54    1
    59   149   150    1
    60    63    62    1
    61    99    98    2
    62   103   105   ar
    63   103   101   ar
    64   105   104   ar
    65    42    41    1
    66    42    44   ar
    67   163   161   ar
    68   163   165   ar
    69    98    97    1
    70    55    54    1
    71    55    58   am
    72    62    59    1
    73    41    40    1
    74   166   165    1
    75    54    57    1
    76   161   160   ar
    77    39    38    2
    78   150   155   am
    79   150   151    2
    80    40    37    1
    81   165   164   ar
    82   104   102   ar
    83    59    58    1
    84    59    60    1
    85   101   100    1
    86   101   102   ar
    87   155   156    1
    88    97   100    1
    89    97    96    1
    90    37    38    1
    91    37    36    1
    92   160   159    1
    93   160   162   ar
    94   164   162   ar
    95    60    64   am
    96    60    61    2
    97    96    92   am
    98    64    65    1
    99   158   157    2
   100   159   156    1
   101   156   157    1
   102    36    33   am
   103    68    65    1
   104    68    69    1
   105    65    66    1
   106    92    93    2
   107    92    91    1
   108    34    33    2
   109    33    32    1
   110    89    87    1
   111    70    69    1
   112    70    71    1
   113    94    91    1
   114    94    95    1
   115    90    91    1
   116    90    85   am
   117    67    66    2
   118    66    73   am
   119    88    87    1
   120    35    32    1
   121    84    87    1
   122    84    85    1
   123    84    83    1
   124    32    31    1
   125    85    86    2
   126    72    71    1
   127    73    74    1
   128    82    81    1
   129    77    78    1
   130    74    75    1
   131    23    24   ar
   132    23    21   ar
   133    75    76    2
   134    78    81    1
   135    78    79    1
   136    24    22   ar
   137    21    20   ar
   138    22    20   ar
   139    20    19    1
   140    79    80    2
   141    19    16    1
   142    16    17    1
   143    16    15    1
   144    18    17    2
   145    17    25   am
   146    14    30    1
   147    14    13    1
   148     4     3    2
   149    30    29    1
   150    25    26    1
   151    10    13    1
   152    10    11    1
   153    10     9    1
   154    26    29    1
   155    26    27    1
   156    11    12    2
   157     3     9   am
   158     3     2    1
   159    27    28    2
   160     2     1    1
   161     2     5    1
   162     7     6    1
   163     6     5    1
   164     6     8    1
