@<TRIPOS>MOLECULE
tmp/2fdcD00.pdb
 110 107 0 0 0
SMALL
GASTEIGER

@<TRIPOS>ATOM
      1  N         55.7470   31.9490   62.4830 N.3    65  HIS65      -0.1226
      2  CA        56.1650   30.9460   63.5030 C.3    65  HIS65       0.1752
      3  C         55.4150   29.6140   63.4410 C.2    65  HIS65       0.2596
      4  O         55.9860   28.6040   63.8260 O.2    65  HIS65      -0.2718
      5  CB        56.1950   31.5170   64.9570 C.3    65  HIS65       0.0759
      6  CG        54.8510   31.8640   65.5150 C.ar   65  HIS65       0.0818
      7  ND1       54.1740   31.0420   66.3870 N.ar   65  HIS65      -0.2268
      8  CD2       54.0650   32.9500   65.3340 C.ar   65  HIS65       0.1154
      9  CE1       53.0250   31.6020   66.7130 C.ar   65  HIS65       0.1986
     10  NE2       52.9370   32.7660   66.0910 N.ar   65  HIS65      -0.2212
     11  N         54.1640   29.5880   62.9650 N.am   66  ASN66      -0.1974
     12  CA        53.4650   28.2840   62.7750 C.3    66  ASN66       0.1688
     13  C         52.5930   28.2260   61.5110 C.2    66  ASN66       0.2292
     14  O         52.2310   29.2570   60.9410 O.2    66  ASN66      -0.2864
     15  CB        52.6930   27.8640   64.0350 C.3    66  ASN66       0.1181
     16  CG        51.3450   28.5410   64.1610 C.2    66  ASN66       0.2629
     17  OD1       50.3790   28.1640   63.4710 O.2    66  ASN66      -0.2716
     18  ND2       51.2490   29.5300   65.0810 N.am   66  ASN66      -0.0877
     19  N         58.4230   38.5720   67.6320 N.3   341  HIS341     -0.1226
     20  CA        58.8170   38.2650   69.0200 C.3   341  HIS341      0.1752
     21  C         58.7750   36.7790   69.3940 C.2   341  HIS341      0.2595
     22  O         59.2950   36.3950   70.4120 O.2   341  HIS341     -0.2718
     23  CB        57.9520   39.0830   69.9920 C.3   341  HIS341      0.0759
     24  CG        56.5530   38.5860   70.1150 C.ar  341  HIS341      0.0818
     25  ND1       55.7250   38.4270   69.0300 N.ar  341  HIS341     -0.2268
     26  CD2       55.8330   38.2270   71.1970 C.ar  341  HIS341      0.1154
     27  CE1       54.5560   37.9790   69.4390 C.ar  341  HIS341      0.1986
     28  NE2       54.5950   37.8510   70.7510 N.ar  341  HIS341     -0.2212
     29  N         58.1210   35.9710   68.5920 N.am  342  VAL342     -0.1980
     30  CA        58.1600   34.5160   68.7640 C.3   342  VAL342      0.1595
     31  C         58.8570   33.8210   67.5380 C.2   342  VAL342      0.2287
     32  O         59.4450   32.7520   67.6820 O.2   342  VAL342     -0.2864
     33  CB        56.7240   33.9180   69.0300 C.3   342  VAL342      0.0276
     34  CG1       55.7480   34.4090   68.0420 C.3   342  VAL342      0.0022
     35  CG2       56.7430   32.4060   68.9870 C.3   342  VAL342      0.0022
     36  N         63.0340   34.2150   67.5670 N.3   345  PRO345     -0.2102
     37  CA        63.5430   33.2380   68.4860 C.3   345  PRO345      0.1504
     38  C         63.5140   31.8220   67.9280 C.2   345  PRO345      0.2575
     39  O         64.4260   31.0690   68.1970 O.2   345  PRO345     -0.2718
     40  CB        62.5800   33.3310   69.6490 C.3   345  PRO345      0.0282
     41  CG        62.0030   34.6310   69.5590 C.3   345  PRO345      0.0208
     42  CD        61.9320   34.9800   68.1500 C.3   345  PRO345      0.0893
     43  N         62.4650   31.4660   67.1750 N.am  346  GLN346     -0.1980
     44  CA        62.3630   30.1340   66.5860 C.3   346  GLN346      0.1601
     45  C         63.4190   29.9230   65.4930 C.2   346  GLN346      0.2287
     46  O         64.0300   28.8780   65.4330 O.2   346  GLN346     -0.2864
     47  CB        60.9650   29.8920   66.0260 C.3   346  GLN346      0.0394
     48  CG        60.7090   28.4490   65.5490 C.3   346  GLN346      0.0908
     49  CD        59.2980   28.2330   64.9590 C.2   346  GLN346      0.2608
     50  OE1       59.0300   28.5590   63.7970 O.2   346  GLN346     -0.2717
     51  NE2       58.4150   27.6530   65.7540 N.am  346  GLN346     -0.0878
     52  N         66.6600   29.2920   67.0230 N.3   349  GLY349     -0.1210
     53  CA        66.6850   27.9870   67.7010 C.3   349  GLY349      0.1956
     54  C         66.8650   26.7240   66.8970 C.2   349  GLY349      0.2611
     55  O         67.2820   25.7240   67.4420 O.2   349  GLY349     -0.2717
     56  N         66.5740   26.7750   65.6010 N.am  350  MET350     -0.1979
     57  CA        66.5820   25.5710   64.7500 C.3   350  MET350      0.1605
     58  C         67.9140   24.8960   64.6940 C.2   350  MET350      0.2287
     59  O         67.9950   23.6970   64.9000 O.2   350  MET350     -0.2864
     60  CB        66.1300   25.8970   63.3120 C.3   350  MET350      0.0413
     61  CG        64.6970   26.4740   63.1730 C.3   350  MET350      0.0598
     62  SD        63.3720   25.4480   63.8540 S.3   350  MET350     -0.1393
     63  CE        63.3680   25.8640   65.6380 C.3   350  MET350      0.0692
     64  N         48.3670   31.0950   82.3030 N.3   495  ASN495     -0.1240
     65  CA        48.7210   31.7600   81.0310 C.3   495  ASN495      0.1653
     66  C         47.5470   31.9490   80.0420 C.2   495  ASN495      0.2266
     67  O         47.0450   30.9870   79.4390 O.2   495  ASN495     -0.2867
     68  CB        49.8820   31.0350   80.3270 C.3   495  ASN495      0.1155
     69  CG        50.5880   31.9240   79.2910 C.2   495  ASN495      0.2627
     70  OD1       51.3200   31.4470   78.4420 O.2   495  ASN495     -0.2716
     71  ND2       50.3680   33.2150   79.3780 N.am  495  ASN495     -0.0877
     72  N         48.0390   34.2270   77.5920 N.3   497  LEU497     -0.1231
     73  CA        48.7810   34.5800   76.3610 C.3   497  LEU497      0.1693
     74  C         48.5790   33.5040   75.2920 C.2   497  LEU497      0.2592
     75  O         48.6710   33.7600   74.0840 O.2   497  LEU497     -0.2718
     76  CB        50.2670   34.7090   76.6430 C.3   497  LEU497      0.0284
     77  CG        50.7290   35.8160   77.5780 C.3   497  LEU497      0.0019
     78  CD1       52.2640   35.7490   77.7310 C.3   497  LEU497      0.0001
     79  CD2       50.3100   37.1410   77.0520 C.3   497  LEU497      0.0001
     80  N         48.3330   32.2920   75.7630 N.am  498  ARG498     -0.1966
     81  CA        47.9720   31.1730   74.9250 C.3   498  ARG498      0.1729
     82  C         46.9300   31.5790   73.8670 C.2   498  ARG498      0.2616
     83  O         45.8750   32.1250   74.1950 O.2   498  ARG498     -0.2715
     84  CB        47.4160   30.0690   75.8170 C.3   498  ARG498      0.0348
     85  CG        46.9560   28.8870   75.1000 C.3   498  ARG498      0.0492
     86  CD        46.6800   27.7900   76.0330 C.3   498  ARG498      0.2205
     87  NE        46.4420   26.5810   75.2820 N.pl3 498  ARG498     -0.0865
     88  CZ        46.3460   25.3750   75.8160 C.cat 498  ARG498      0.5346
     89  NH1       46.4600   25.2150   77.1290 N.pl3 498  ARG498      0.1354
     90  NH2       46.1350   24.3130   75.0300 N.pl3 498  ARG498      0.1354
     91  N         47.2420   31.2920   72.6080 N.am  499  GLU499     -0.1977
     92  CA        46.3880   31.6620   71.4860 C.3   499  GLU499      0.1602
     93  C         45.0370   30.9160   71.5260 C.2   499  GLU499      0.2287
     94  O         44.9800   29.7180   71.8010 O.2   499  GLU499     -0.2864
     95  CB        47.1200   31.4030   70.1660 C.3   499  GLU499      0.0415
     96  CG        48.4360   32.1970   70.0290 C.3   499  GLU499      0.1163
     97  CD        49.2490   31.7890   68.8160 C.2   499  GLU499      0.3649
     98  OE1       48.6870   31.7620   67.6990 O.co2 499  GLU499     -0.2457
     99  OE2       50.4560   31.5030   68.9830 O.co2 499  GLU499     -0.2457
    100  N         57.7810   35.7330   84.1200 N.3   519  PHE519     -0.1241
    101  CA        57.7570   36.0110   82.7100 C.3   519  PHE519      0.1605
    102  C         56.3630   36.5020   82.4440 C.2   519  PHE519      0.2264
    103  O         56.1550   37.4630   81.7040 O.2   519  PHE519     -0.2867
    104  CB        58.0210   34.7490   81.8810 C.3   519  PHE519      0.0534
    105  CG        57.5550   34.8640   80.4630 C.ar  519  PHE519     -0.0203
    106  CD1       58.3160   35.5710   79.5170 C.ar  519  PHE519     -0.0042
    107  CD2       56.3290   34.3020   80.0660 C.ar  519  PHE519     -0.0042
    108  CE1       57.8730   35.7100   78.1760 C.ar  519  PHE519     -0.0003
    109  CE2       55.8630   34.4320   78.7230 C.ar  519  PHE519     -0.0003
    110  CZ        56.6410   35.1370   77.7770 C.ar  519  PHE519     -0.0000
@<TRIPOS>BOND
     1    14    13    2
     2    13    12    1
     3     1     2    1
     4    12    11    1
     5    12    15    1
     6    11     3   am
     7    61    60    1
     8    61    62    1
     9    60    57    1
    10     3     2    1
    11     3     4    2
    12    17    16    2
    13     2     5    1
    14    50    49    2
    15    62    63    1
    16    15    16    1
    17    16    18   am
    18    58    57    1
    19    58    59    2
    20    57    56    1
    21     5     6    1
    22    49    48    1
    23    49    51   am
    24     8     6   ar
    25     8    10   ar
    26    46    45    2
    27    45    44    1
    28     6     7   ar
    29    48    47    1
    30    56    54   am
    31    47    44    1
    32    10     9   ar
    33     7     9   ar
    34    44    43    1
    35    54    55    2
    36    54    53    1
    37    52    53    1
    38    43    38   am
    39    31    32    2
    40    31    30    1
    41    36    42    1
    42    36    37    1
    43    19    20    1
    44    98    97   ar
    45    38    39    2
    46    38    37    1
    47    34    33    1
    48    42    41    1
    49    37    40    1
    50    29    30    1
    51    29    21   am
    52    30    33    1
    53    97    99   ar
    54    97    96    1
    55    35    33    1
    56    20    21    1
    57    20    23    1
    58    25    27   ar
    59    25    24   ar
    60    21    22    2
    61    27    28   ar
    62    41    40    1
    63    23    24    1
    64    96    95    1
    65    24    26   ar
    66    95    92    1
    67    28    26   ar
    68    92    93    1
    69    92    91    1
    70    93    94    2
    71    91    82   am
    72    82    83    2
    73    82    81    1
    74    75    74    2
    75    81    80    1
    76    81    84    1
    77    90    88    1
    78    85    84    1
    79    85    86    1
    80    87    88    2
    81    87    86    1
    82    74    80   am
    83    74    73    1
    84    88    89    1
    85    73    76    1
    86    73    72    1
    87    76    77    1
    88    79    77    1
    89    77    78    1
    90   110   108   ar
    91   110   109   ar
    92   108   106   ar
    93    70    69    2
    94   109   107   ar
    95    69    71   am
    96    69    68    1
    97    67    66    2
    98   106   105   ar
    99    66    65    1
   100   107   105   ar
   101    68    65    1
   102   105   104    1
   103    65    64    1
   104   103   102    2
   105   104   101    1
   106   102   101    1
   107   101   100    1
