@<TRIPOS>MOLECULE
tmp/2fddB00.pdb
 118 110 0 0 0
SMALL
GASTEIGER

@<TRIPOS>ATOM
      1  N         15.5750   27.0710    1.7020 N.3     8  ARG8       -0.1245
      2  CA        15.0000   25.8690    2.2960 C.3     8  ARG8        0.1563
      3  C         13.9900   26.2800    3.3570 C.2     8  ARG8        0.2260
      4  O         14.2570   27.1650    4.1820 O.2     8  ARG8       -0.2867
      5  CB        16.0900   25.0160    2.9410 C.3     8  ARG8        0.0307
      6  CG        17.0870   24.4630    1.9440 C.3     8  ARG8        0.0489
      7  CD        18.2320   23.7910    2.6530 C.3     8  ARG8        0.2205
      8  NE        19.1660   23.2010    1.7030 N.pl3   8  ARG8       -0.0865
      9  CZ        20.3760   22.7570    2.0260 C.cat   8  ARG8        0.5346
     10  NH1       20.8010   22.8400    3.2810 N.pl3   8  ARG8        0.1354
     11  NH2       21.1590   22.2240    1.0960 N.pl3   8  ARG8        0.1354
     12  N         13.2330   20.6860    8.1580 N.3    23  LEU23      -0.1245
     13  CA        12.7920   21.0920    6.8370 C.3    23  LEU23       0.1561
     14  C         11.3480   20.6670    6.5490 C.2    23  LEU23       0.2260
     15  O         11.0210   19.4940    6.7090 O.2    23  LEU23      -0.2867
     16  CB        13.7400   20.4310    5.8330 C.3    23  LEU23       0.0270
     17  CG        13.8140   20.7480    4.3450 C.3    23  LEU23       0.0019
     18  CD1       14.2330   22.1940    4.1310 C.3    23  LEU23       0.0001
     19  CD2       14.8400   19.8090    3.7170 C.3    23  LEU23       0.0001
     20  N          9.0510   19.2430    4.3890 N.3    25  ASP25      -0.1239
     21  CA         9.3410   18.4450    3.2150 C.3    25  ASP25       0.1674
     22  C          8.1440   17.7090    2.6260 C.2    25  ASP25       0.2266
     23  O          7.7620   16.6370    3.0970 O.2    25  ASP25      -0.2867
     24  CB        10.4440   17.4590    3.6120 C.3    25  ASP25       0.1410
     25  CG        11.0360   16.7320    2.4340 C.2    25  ASP25       0.3668
     26  OD1       12.0010   15.9730    2.6570 O.co2  25  ASP25      -0.2456
     27  OD2       10.5320   16.9290    1.3150 O.co2  25  ASP25      -0.2456
     28  N          8.0270   16.1760   -0.0730 N.3    27  GLY27      -0.1210
     29  CA         8.4380   14.9670   -0.7750 C.3    27  GLY27       0.1956
     30  C          8.6940   13.8140    0.1820 C.2    27  GLY27       0.2612
     31  O          9.0700   12.7160   -0.2370 O.2    27  GLY27      -0.2717
     32  N          8.4790   14.0630    1.4710 N.am   28  ALA28      -0.1965
     33  CA         8.6850   13.0500    2.5070 C.3    28  ALA28       0.1728
     34  C          7.3580   12.5310    3.0590 C.2    28  ALA28       0.2616
     35  O          6.5220   13.3120    3.5000 O.2    28  ALA28      -0.2715
     36  CB         9.5100   13.6440    3.6490 C.3    28  ALA28       0.0334
     37  N          7.1640   11.2160    3.0360 N.am   29  ASP29      -0.1957
     38  CA         5.9350   10.6390    3.5820 C.3    29  ASP29       0.1840
     39  C          5.9690   10.7710    5.0940 C.2    29  ASP29       0.2622
     40  O          4.9680   11.1020    5.7360 O.2    29  ASP29      -0.2715
     41  CB         5.8390    9.1460    3.2690 C.3    29  ASP29       0.1450
     42  CG         5.6190    8.8550    1.8090 C.2    29  ASP29       0.3671
     43  OD1        5.7710    7.6700    1.4420 O.co2  29  ASP29      -0.2456
     44  OD2        5.2960    9.7790    1.0270 O.co2  29  ASP29      -0.2456
     45  N          7.1400   10.4920    5.6510 N.am   30  ASP30      -0.1971
     46  CA         7.3260   10.5060    7.0900 C.3    30  ASP30       0.1709
     47  C          8.3180   11.5520    7.5700 C.2    30  ASP30       0.2293
     48  O          9.0220   12.1820    6.7770 O.2    30  ASP30      -0.2864
     49  CB         7.7610    9.1090    7.5420 C.3    30  ASP30       0.1436
     50  CG         6.9170    8.0010    6.9120 C.2    30  ASP30       0.3671
     51  OD1        5.6750    8.1190    6.8950 O.co2  30  ASP30      -0.2456
     52  OD2        7.4960    7.0070    6.4370 O.co2  30  ASP30      -0.2456
     53  N         11.6380   12.4050    9.7470 N.3    32  VAL32      -0.1245
     54  CA        12.8900   11.7880   10.1800 C.3    32  VAL32       0.1561
     55  C         13.8050   12.8200   10.8240 C.2    32  VAL32       0.2260
     56  O         14.1430   13.8260   10.1960 O.2    32  VAL32      -0.2867
     57  CB        13.6460   11.1820    8.9790 C.3    32  VAL32       0.0252
     58  CG1       14.7770   10.2960    9.4780 C.3    32  VAL32       0.0019
     59  CG2       12.6990   10.4110    8.1080 C.3    32  VAL32       0.0019
     60  N         12.5130    0.1920   11.5160 N.3    45  LYS45      -0.1245
     61  CA        11.9080    0.4770   10.2210 C.3    45  LYS45       0.1561
     62  C         12.9710    0.8330    9.1970 C.2    45  LYS45       0.2260
     63  O         14.0550    1.2890    9.5500 O.2    45  LYS45      -0.2867
     64  CB        10.9030    1.6350   10.3080 C.3    45  LYS45       0.0271
     65  CG        10.2370    1.9410    8.9700 C.3    45  LYS45       0.0035
     66  CD         9.1990    3.0420    9.0450 C.3    45  LYS45       0.0206
     67  CE         8.5520    3.2290    7.6800 C.3    45  LYS45       0.1093
     68  NZ         7.4350    4.2220    7.6920 N.3    45  LYS45      -0.1314
     69  N         13.5350    2.9970    5.5720 N.3    47  ILE47      -0.1231
     70  CA        12.9950    3.9510    4.6190 C.3    47  ILE47       0.1692
     71  C         13.9980    4.1210    3.4880 C.2    47  ILE47       0.2593
     72  O         15.2050    3.9520    3.6860 O.2    47  ILE47      -0.2718
     73  CB        12.7040    5.3250    5.2740 C.3    47  ILE47       0.0266
     74  CG1       13.9950    5.9450    5.8120 C.3    47  ILE47       0.0019
     75  CG2       11.6830    5.1570    6.4050 C.3    47  ILE47       0.0020
     76  CD1       13.8200    7.3690    6.3090 C.3    47  ILE47       0.0001
     77  N         13.4930    4.4330    2.3000 N.am   48  GLY48      -0.1942
     78  CA        14.3680    4.6030    1.1580 C.3    48  GLY48       0.2014
     79  C         14.2450    5.9520    0.4860 C.2    48  GLY48       0.2639
     80  O         13.1710    6.5560    0.4560 O.2    48  GLY48      -0.2714
     81  N         15.3580    6.4280   -0.0610 N.am   49  GLY49      -0.1939
     82  CA        15.3620    7.7070   -0.7410 C.3    49  GLY49       0.2014
     83  C         16.4480    7.7640   -1.7870 C.2    49  GLY49       0.2638
     84  O         16.9080    6.7290   -2.2610 O.2    49  GLY49      -0.2714
     85  N         16.8510    8.9720   -2.1680 N.am   50  VAL50      -0.1977
     86  CA        17.9120    9.1200   -3.1390 C.3    50  VAL50       0.1596
     87  C         19.1420    8.5980   -2.4200 C.2    50  VAL50       0.2287
     88  O         19.4150    8.9900   -1.2830 O.2    50  VAL50      -0.2864
     89  CB        18.1250   10.6000   -3.5310 C.3    50  VAL50       0.0276
     90  CG1       19.4700   10.7720   -4.2170 C.3    50  VAL50       0.0022
     91  CG2       17.0110   11.0520   -4.4640 C.3    50  VAL50       0.0022
     92  N         20.2730   10.8010    8.8490 N.3    80  THR80      -0.1204
     93  CA        19.6980   11.6000    7.7850 C.3    80  THR80       0.1979
     94  C         20.5100   12.8760    7.7920 C.2    80  THR80       0.2460
     95  O         20.7730   13.4590    8.8490 O.2    80  THR80      -0.2732
     96  CB        18.1930   11.9120    7.9960 C.3    80  THR80       0.1783
     97  OG1       17.7680   12.8380    6.9880 O.3    80  THR80      -0.2211
     98  CG2       17.9290   12.5030    9.3750 C.3    80  THR80       0.0376
     99  N         20.9530   13.3170    6.6150 N.am   81  PRO81      -0.2717
    100  CA        21.7530   14.5400    6.5430 C.3    81  PRO81       0.1535
    101  C         20.9730   15.8150    6.8300 C.2    81  PRO81       0.2598
    102  O         21.5380   16.9100    6.8350 O.2    81  PRO81      -0.2715
    103  CB        22.3260   14.4900    5.1340 C.3    81  PRO81       0.0310
    104  CG        21.2660   13.7700    4.3700 C.3    81  PRO81       0.0237
    105  CD        20.8520   12.6660    5.2970 C.3    81  PRO81       0.0939
    106  N         19.6730   15.6740    7.0700 N.am   82  ALA82      -0.1978
    107  CA        18.8350   16.8220    7.3840 C.3    82  ALA82       0.1597
    108  C         17.5750   16.3740    8.1040 C.2    82  ALA82       0.2287
    109  O         16.9940   15.3490    7.7620 O.2    82  ALA82      -0.2864
    110  CB        18.4640   17.5730    6.1020 C.3    82  ALA82       0.0319
    111  N         13.8670   16.2260    8.7630 N.3    84  ILE84      -0.1245
    112  CA        12.7600   16.3670    7.8290 C.3    84  ILE84       0.1561
    113  C         11.3770   16.2240    8.4710 C.2    84  ILE84       0.2260
    114  O         11.1290   15.2760    9.2150 O.2    84  ILE84      -0.2867
    115  CB        12.8950   15.2720    6.7280 C.3    84  ILE84       0.0252
    116  CG1       14.1180   15.5680    5.8600 C.3    84  ILE84       0.0019
    117  CG2       11.6170   15.1490    5.9160 C.3    84  ILE84       0.0019
    118  CD1       14.6460   14.3140    5.1770 C.3    84  ILE84       0.0001
@<TRIPOS>BOND
     1    91    89    1
     2    90    89    1
     3    89    86    1
     4    86    87    1
     5    86    85    1
     6    87    88    2
     7    84    83    2
     8    85    83   am
     9    83    82    1
    10    29    28    1
    11    29    30    1
    12    82    81    1
    13    31    30    2
    14    81    79   am
    15    30    32   am
    16    80    79    2
    17    79    78    1
    18    44    42   ar
    19    11     9    1
    20    78    77    1
    21    27    25   ar
    22    43    42   ar
    23    32    33    1
    24     1     2    1
    25     8     9    2
    26     8     7    1
    27    42    41    1
    28     6     7    1
    29     6     5    1
    30     9    10    1
    31     2     5    1
    32     2     3    1
    33    77    71   am
    34    25    26   ar
    35    25    24    1
    36    33    34    1
    37    33    36    1
    38    22    23    2
    39    22    21    1
    40    37    34   am
    41    37    38    1
    42    34    35    2
    43    21    24    1
    44    21    20    1
    45    41    38    1
    46     3     4    2
    47    71    72    2
    48    71    70    1
    49    38    39    1
    50    19    17    1
    51    18    17    1
    52    17    16    1
    53   104   103    1
    54   104   105    1
    55    70    73    1
    56    70    69    1
    57    39    45   am
    58    39    40    2
    59   103   100    1
    60   118   116    1
    61    73    74    1
    62    73    75    1
    63   105    99    1
    64    45    46    1
    65    74    76    1
    66    16    13    1
    67   116   115    1
    68   117   115    1
    69   110   107    1
    70    52    50   ar
    71   100    99    1
    72   100   101    1
    73    14    15    2
    74    14    13    1
    75    99    94   am
    76   115   112    1
    77    48    47    2
    78   101   102    2
    79   101   106   am
    80    13    12    1
    81    51    50   ar
    82    50    49    1
    83    97    96    1
    84   106   107    1
    85    46    49    1
    86    46    47    1
    87   107   108    1
    88    67    68    1
    89    67    66    1
    90   109   108    2
    91    93    94    1
    92    93    96    1
    93    93    92    1
    94    94    95    2
    95   112   113    1
    96   112   111    1
    97    96    98    1
    98    59    57    1
    99   113   114    2
   100    65    66    1
   101    65    64    1
   102    57    58    1
   103    57    54    1
   104    62    63    2
   105    62    61    1
   106    53    54    1
   107    54    55    1
   108    56    55    2
   109    61    64    1
   110    61    60    1
