@<TRIPOS>MOLECULE
tmp/2fdgB00.pdb
 194 190 0 0 0
SMALL
GASTEIGER

@<TRIPOS>ATOM
      1  N         27.8180   14.9950  -14.8340 N.3    37  THR37      -0.1204
      2  CA        28.2400   16.3960  -14.9160 C.3    37  THR37       0.1979
      3  C         27.2360   17.1780  -15.8160 C.2    37  THR37       0.2460
      4  O         26.5690   16.5580  -16.6570 O.2    37  THR37      -0.2732
      5  CB        29.7390   16.4520  -15.4190 C.3    37  THR37       0.1783
      6  OG1       30.3950   17.5930  -14.8570 O.3    37  THR37      -0.2211
      7  CG2       29.8440   16.5010  -16.9370 C.3    37  THR37       0.0376
      8  N         27.0720   18.5170  -15.6220 N.am   38  PRO38      -0.2717
      9  CA        26.1330   19.3070  -16.4420 C.3    38  PRO38       0.1535
     10  C         26.2300   19.1460  -17.9650 C.2    38  PRO38       0.2599
     11  O         25.2330   19.3150  -18.6730 O.2    38  PRO38      -0.2715
     12  CB        26.4280   20.7350  -16.0040 C.3    38  PRO38       0.0310
     13  CG        26.7170   20.5620  -14.5780 C.3    38  PRO38       0.0237
     14  CD        27.6230   19.3750  -14.5510 C.3    38  PRO38       0.0939
     15  N         27.4140   18.7610  -18.4380 N.am   39  GLY39      -0.1955
     16  CA        27.6470   18.5440  -19.8570 C.3    39  GLY39       0.1869
     17  C         27.2300   17.1700  -20.3600 C.2    39  GLY39       0.2309
     18  O         27.3370   16.9060  -21.5560 O.2    39  GLY39      -0.2863
     19  N         28.4470   14.0610  -18.9730 N.3    41  TYR41      -0.1227
     20  CA        29.4780   13.0380  -18.7650 C.3    41  TYR41       0.1736
     21  C         29.5280   12.5140  -17.3330 C.2    41  TYR41       0.2596
     22  O         29.6140   13.2810  -16.3810 O.2    41  TYR41      -0.2718
     23  CB        30.8560   13.5700  -19.1880 C.3    41  TYR41       0.0548
     24  CG        30.9710   13.8460  -20.6690 C.ar   41  TYR41      -0.0200
     25  CD1       30.5100   15.0650  -21.2190 C.ar   41  TYR41      -0.0009
     26  CD2       31.5070   12.8770  -21.5470 C.ar   41  TYR41      -0.0009
     27  CE1       30.5710   15.3100  -22.6190 C.ar   41  TYR41       0.0417
     28  CE2       31.5780   13.1160  -22.9490 C.ar   41  TYR41       0.0417
     29  CZ        31.1060   14.3320  -23.4710 C.ar   41  TYR41       0.1957
     30  OH        31.1560   14.5720  -24.8250 O.3    41  TYR41      -0.2866
     31  N         29.4820   11.1920  -17.1930 N.am   42  THR42      -0.1939
     32  CA        29.5210   10.5320  -15.8870 C.3    42  THR42       0.2028
     33  C         30.9390   10.5660  -15.3020 C.2    42  THR42       0.2642
     34  O         31.9150   10.2600  -15.9900 O.2    42  THR42      -0.2714
     35  CB        29.0550    9.0540  -16.0010 C.3    42  THR42       0.1808
     36  OG1       27.7990    8.9830  -16.6890 O.3    42  THR42      -0.2208
     37  CG2       28.8770    8.4480  -14.6790 C.3    42  THR42       0.0379
     38  N         31.0310   10.9400  -14.0290 N.am   43  MET43      -0.1962
     39  CA        32.3070   11.0080  -13.3110 C.3    43  MET43       0.1736
     40  C         32.7960    9.5870  -13.0090 C.2    43  MET43       0.2617
     41  O         31.9730    8.6800  -12.8550 O.2    43  MET43      -0.2715
     42  CB        32.1180   11.7900  -12.0050 C.3    43  MET43       0.0427
     43  CG        31.7500   13.2540  -12.1990 C.3    43  MET43       0.0599
     44  SD        31.3050   14.0780  -10.6490 S.3    43  MET43      -0.1393
     45  CE        32.8730   14.4730  -10.0180 C.3    43  MET43       0.0692
     46  N         34.1170    9.3790  -12.9930 N.am   44  SER44      -0.1950
     47  CA        34.6800    8.0530  -12.6910 C.3    44  SER44       0.1924
     48  C         34.6570    7.7660  -11.1840 C.2    44  SER44       0.2314
     49  O         34.5710    6.6140  -10.7590 O.2    44  SER44      -0.2863
     50  CB        36.0980    7.8980  -13.2640 C.3    44  SER44       0.2116
     51  OG        37.0070    8.8160  -12.6750 O.3    44  SER44      -0.2180
     52  N         30.2180    8.8790   -5.8400 N.3    47  MET47      -0.1245
     53  CA        29.9720    9.7450   -4.6930 C.3    47  MET47       0.1570
     54  C         28.6490    9.5360   -3.9670 C.2    47  MET47       0.2261
     55  O         27.7410    8.8710   -4.4610 O.2    47  MET47      -0.2867
     56  CB        30.0480   11.2210   -5.1190 C.3    47  MET47       0.0387
     57  CG        31.4270   11.7440   -5.4990 C.3    47  MET47       0.0595
     58  SD        31.3250   13.3280   -6.3320 S.3    47  MET47      -0.1393
     59  CE        32.9980   13.9110   -6.1930 C.3    47  MET47       0.0692
     60  N         26.6920   17.6510   -1.4800 N.3    55  TRP55      -0.1241
     61  CA        27.1300   18.0800   -2.8040 C.3    55  TRP55       0.1605
     62  C         26.6340   17.1430   -3.8870 C.2    55  TRP55       0.2264
     63  O         26.7460   15.9170   -3.7690 O.2    55  TRP55      -0.2867
     64  CB        28.6680   18.1960   -2.8660 C.3    55  TRP55       0.0550
     65  CG        29.2030   18.8580   -4.1350 C.ar   55  TRP55       0.0003
     66  CD1       29.3930   20.2010   -4.3480 C.ar   55  TRP55       0.0946
     67  CD2       29.5870   18.2010   -5.3560 C.ar   55  TRP55       0.0152
     68  NE1       29.8650   20.4190   -5.6250 N.ar   55  TRP55      -0.2442
     69  CE2       29.9940   19.2150   -6.2670 C.ar   55  TRP55       0.0810
     70  CE3       29.6280   16.8510   -5.7740 C.ar   55  TRP55       0.0012
     71  CZ2       30.4370   18.9220   -7.5780 C.ar   55  TRP55       0.0191
     72  CZ3       30.0710   16.5540   -7.0880 C.ar   55  TRP55       0.0001
     73  CH2       30.4700   17.5960   -7.9710 C.ar   55  TRP55       0.0015
     74  N         24.6110   23.4860  -13.0600 N.3    61  GLY61      -0.1210
     75  CA        25.9080   23.5220  -12.3970 C.3    61  GLY61       0.1956
     76  C         26.0420   22.5660  -11.2270 C.2    61  GLY61       0.2611
     77  O         25.5380   21.4340  -11.2670 O.2    61  GLY61      -0.2717
     78  N         26.7310   23.0320  -10.1860 N.am   62  TYR62      -0.1976
     79  CA        26.9590   22.2630   -8.9640 C.3    62  TYR62       0.1639
     80  C         26.2930   22.9920   -7.8010 C.2    62  TYR62       0.2290
     81  O         26.2710   24.2280   -7.7680 O.2    62  TYR62      -0.2864
     82  CB        28.4620   22.1410   -8.6660 C.3    62  TYR62       0.0560
     83  CG        29.3240   21.6180   -9.8020 C.ar   62  TYR62      -0.0198
     84  CD1       29.0270   20.3900  -10.4360 C.ar   62  TYR62      -0.0009
     85  CD2       30.4490   22.3460  -10.2490 C.ar   62  TYR62      -0.0009
     86  CE1       29.8280   19.8930  -11.4890 C.ar   62  TYR62       0.0417
     87  CE2       31.2640   21.8560  -11.3160 C.ar   62  TYR62       0.0417
     88  CZ        30.9390   20.6280  -11.9250 C.ar   62  TYR62       0.1957
     89  OH        31.6980   20.1360  -12.9600 O.3    62  TYR62      -0.2866
     90  N         31.1190   15.0150    1.8630 N.3   104  LEU104     -0.1245
     91  CA        31.1130   14.3610    0.5590 C.3   104  LEU104      0.1561
     92  C         32.0320   13.1510    0.6260 C.2   104  LEU104      0.2260
     93  O         33.2020   13.2730    0.9990 O.2   104  LEU104     -0.2867
     94  CB        31.5720   15.3410   -0.5380 C.3   104  LEU104      0.0270
     95  CG        31.6680   14.8970   -2.0090 C.3   104  LEU104      0.0019
     96  CD1       30.3250   14.4040   -2.5600 C.3   104  LEU104      0.0001
     97  CD2       32.1980   16.0480   -2.8420 C.3   104  LEU104      0.0001
     98  N         39.6610    8.6670  -11.5350 N.3   113  LYS113     -0.1231
     99  CA        40.3470    9.9470  -11.4160 C.3   113  LYS113      0.1693
    100  C         39.4070   11.1260  -11.2440 C.2   113  LYS113      0.2592
    101  O         38.1880   11.0020  -11.3890 O.2   113  LYS113     -0.2718
    102  CB        41.2320   10.1800  -12.6550 C.3   113  LYS113      0.0285
    103  CG        40.5300    9.9870  -14.0080 C.3   113  LYS113      0.0035
    104  CD        41.4830   10.2460  -15.1610 C.3   113  LYS113      0.0206
    105  CE        40.8690    9.8990  -16.5040 C.3   113  LYS113      0.1093
    106  NZ        41.8630   10.0400  -17.6100 N.3   113  LYS113     -0.1314
    107  N         40.0080   12.2800  -10.9790 N.am  114  LEU114     -0.1966
    108  CA        39.2800   13.5220  -10.7900 C.3   114  LEU114      0.1728
    109  C         40.1880   14.6030  -11.3640 C.2   114  LEU114      0.2617
    110  O         41.3150   14.7890  -10.8930 O.2   114  LEU114     -0.2715
    111  CB        39.0230   13.7280   -9.2920 C.3   114  LEU114      0.0311
    112  CG        37.8940   14.6120   -8.7730 C.3   114  LEU114      0.0022
    113  CD1       36.5650   14.3130   -9.4480 C.3   114  LEU114      0.0001
    114  CD2       37.7910   14.4050   -7.2730 C.3   114  LEU114      0.0001
    115  N         39.7280   15.2540  -12.4320 N.am  115  SER115     -0.1936
    116  CA        40.4970   16.3090  -13.0980 C.3   115  SER115      0.2055
    117  C         40.4850   17.6100  -12.3010 C.2   115  SER115      0.2643
    118  O         39.6470   17.7820  -11.4070 O.2   115  SER115     -0.2714
    119  CB        39.9850   16.5380  -14.5220 C.3   115  SER115      0.2130
    120  OG        38.6250   16.9340  -14.5240 O.3   115  SER115     -0.2179
    121  N         41.4060   18.5130  -12.6470 N.am  116  LEU116     -0.1963
    122  CA        41.5740   19.8110  -11.9820 C.3   116  LEU116      0.1728
    123  C         40.3230   20.6610  -11.8230 C.2   116  LEU116      0.2616
    124  O         39.6070   20.9200  -12.7920 O.2   116  LEU116     -0.2715
    125  CB        42.6720   20.6340  -12.6660 C.3   116  LEU116      0.0311
    126  CG        44.1060   20.0920  -12.6910 C.3   116  LEU116      0.0022
    127  CD1       44.9850   21.0450  -13.4890 C.3   116  LEU116      0.0001
    128  CD2       44.6500   19.9200  -11.2790 C.3   116  LEU116      0.0001
    129  N         40.0460   21.0310  -10.5730 N.am  117  HIS117     -0.1959
    130  CA        38.8870   21.8510  -10.2090 C.3   117  HIS117      0.1787
    131  C         39.1170   22.5670   -8.8810 C.2   117  HIS117      0.2620
    132  O         40.0420   22.2420   -8.1270 O.2   117  HIS117     -0.2715
    133  CB        37.6230   20.9750  -10.0760 C.3   117  HIS117      0.0785
    134  CG        37.6750   20.0010   -8.9350 C.ar  117  HIS117      0.0821
    135  ND1       38.4050   18.8350   -8.9930 N.ar  117  HIS117     -0.2267
    136  CD2       37.1560   20.0590   -7.6830 C.ar  117  HIS117      0.1154
    137  CE1       38.3400   18.2210   -7.8250 C.ar  117  HIS117      0.1986
    138  NE2       37.5890   18.9420   -7.0120 N.ar  117  HIS117     -0.2212
    139  N         38.1890   23.4640   -8.5690 N.am  118  GLN118     -0.1963
    140  CA        38.1860   24.1970   -7.3150 C.3   118  GLN118      0.1733
    141  C         36.8930   23.8390   -6.6110 C.2   118  GLN118      0.2616
    142  O         35.8960   23.4940   -7.2590 O.2   118  GLN118     -0.2715
    143  CB        38.1940   25.7070   -7.5460 C.3   118  GLN118      0.0408
    144  CG        39.5250   26.2950   -7.9420 C.3   118  GLN118      0.0908
    145  CD        39.4430   27.7880   -8.1930 C.2   118  GLN118      0.2608
    146  OE1       38.6320   28.2510   -8.9990 O.2   118  GLN118     -0.2717
    147  NE2       40.3040   28.5440   -7.5330 N.am  118  GLN118     -0.0878
    148  N         36.9410   23.8840   -5.2840 N.am  119  ASP119     -0.1971
    149  CA        35.7850   23.6350   -4.4420 C.3   119  ASP119      0.1709
    150  C         35.3270   25.0320   -4.0250 C.2   119  ASP119      0.2293
    151  O         35.8780   25.6260   -3.0870 O.2   119  ASP119     -0.2864
    152  CB        36.1750   22.7900   -3.2310 C.3   119  ASP119      0.1436
    153  CG        36.1630   21.3110   -3.5330 C.2   119  ASP119      0.3671
    154  OD1       37.0980   20.8160   -4.1880 O.co2 119  ASP119     -0.2456
    155  OD2       35.2020   20.6340   -3.1240 O.co2 119  ASP119     -0.2456
    156  N         31.6420   26.0600   -3.9910 N.3   121  ASP121     -0.1225
    157  CA        30.1780   26.0610   -3.8960 C.3   121  ASP121      0.1805
    158  C         29.7300   26.4390   -2.4910 C.2   121  ASP121      0.2597
    159  O         28.5370   26.6050   -2.2260 O.2   121  ASP121     -0.2718
    160  CB        29.6230   24.6860   -4.2710 C.3   121  ASP121      0.1424
    161  CG        30.0290   24.2570   -5.6600 C.2   121  ASP121      0.3668
    162  OD1       30.6560   23.1860   -5.7880 O.co2 121  ASP121     -0.2456
    163  OD2       29.7450   25.0040   -6.6200 O.co2 121  ASP121     -0.2456
    164  N         30.7140   26.5810   -1.6060 N.am  122  GLU122     -0.1979
    165  CA        30.5200   26.9320   -0.2010 C.3   122  GLU122      0.1602
    166  C         30.3950   28.4600   -0.0590 C.2   122  GLU122      0.2287
    167  O         31.0890   29.1980   -0.7620 O.2   122  GLU122     -0.2864
    168  CB        31.7040   26.4050    0.6270 C.3   122  GLU122      0.0415
    169  CG        31.9600   24.8900    0.5320 C.3   122  GLU122      0.1163
    170  CD        32.5610   24.4540   -0.8060 C.2   122  GLU122      0.3649
    171  OE1       32.2060   23.3610   -1.2860 O.co2 122  GLU122     -0.2457
    172  OE2       33.3710   25.2110   -1.3870 O.co2 122  GLU122     -0.2457
    173  N         44.5750   27.9980  -13.2820 N.3   147  ARG147     -0.1245
    174  CA        44.5830   26.6270  -13.8070 C.3   147  ARG147      0.1563
    175  C         45.9100   26.2140  -14.4630 C.2   147  ARG147      0.2260
    176  O         46.2520   25.0270  -14.4860 O.2   147  ARG147     -0.2867
    177  CB        43.4120   26.4560  -14.7890 C.3   147  ARG147      0.0307
    178  CG        42.8660   25.0310  -14.9350 C.3   147  ARG147      0.0489
    179  CD        41.5120   25.0440  -15.6430 C.3   147  ARG147      0.2205
    180  NE        40.9290   23.7090  -15.7910 N.pl3 147  ARG147     -0.0865
    181  CZ        39.6220   23.4540  -15.8760 C.cat 147  ARG147      0.5346
    182  NH1       38.7320   24.4390  -15.8220 N.pl3 147  ARG147      0.1354
    183  NH2       39.2000   22.2050  -16.0360 N.pl3 147  ARG147      0.1354
    184  N         32.5920   19.8120    4.9780 N.3   196  ARG196     -0.1245
    185  CA        32.3810   21.1950    4.5620 C.3   196  ARG196      0.1563
    186  C         31.3280   21.9470    5.3560 C.2   196  ARG196      0.2260
    187  O         30.3820   21.3510    5.8770 O.2   196  ARG196     -0.2867
    188  CB        31.9600   21.2620    3.0800 C.3   196  ARG196      0.0307
    189  CG        32.9140   20.6510    2.0740 C.3   196  ARG196      0.0489
    190  CD        32.3030   19.4270    1.4010 C.3   196  ARG196      0.2205
    191  NE        33.2700   18.7270    0.5630 N.pl3 196  ARG196     -0.0865
    192  CZ        33.6570   19.1100   -0.6550 C.cat 196  ARG196      0.5346
    193  NH1       33.1590   20.2020   -1.2220 N.pl3 196  ARG196      0.1354
    194  NH2       34.5970   18.4220   -1.2920 N.pl3 196  ARG196      0.1354
@<TRIPOS>BOND
     1    30    29    1
     2    29    28   ar
     3    29    27   ar
     4    28    26   ar
     5    27    25   ar
     6    18    17    2
     7    26    24   ar
     8    25    24   ar
     9    24    23    1
    10    17    16    1
    11    16    15    1
    12    23    20    1
    13    19    20    1
    14    20    21    1
    15    11    10    2
    16    15    10   am
    17    10     9    1
    18   106   105    1
    19    21    31   am
    20    21    22    2
    21    31    32    1
    22     7     5    1
    23    36    35    1
    24     4     3    2
    25   105   104    1
    26     9    12    1
    27     9     8    1
    28   183   181    1
    29    12    13    1
    30    35    32    1
    31    35    37    1
    32    34    33    2
    33    32    33    1
    34   181   182    1
    35   181   180    2
    36     3     8   am
    37     3     2    1
    38   180   179    1
    39   179   178    1
    40     8    14    1
    41     5     2    1
    42     5     6    1
    43    33    38   am
    44   104   103    1
    45   178   177    1
    46     2     1    1
    47   177   174    1
    48    13    14    1
    49   120   119    1
    50   119   116    1
    51   176   175    2
    52   175   174    1
    53    38    39    1
    54   103   102    1
    55   174   173    1
    56   127   126    1
    57    39    40    1
    58    39    42    1
    59    50    47    1
    60    50    51    1
    61   116   115    1
    62   116   117    1
    63    74    75    1
    64    40    46   am
    65    40    41    2
    66    46    47    1
    67    89    88    1
    68   124   123    2
    69   126   125    1
    70   126   128    1
    71    47    48    1
    72   125   122    1
    73   102    99    1
    74   121   117   am
    75   121   122    1
    76   115   109   am
    77    75    76    1
    78   117   118    2
    79    43    42    1
    80    43    44    1
    81   122   123    1
    82    88    86   ar
    83    88    87   ar
    84   123   129   am
    85    98    99    1
    86    86    84   ar
    87    99   100    1
    88   101   100    2
    89   109   110    2
    90   109   108    1
    91    87    85   ar
    92    77    76    2
    93   100   107   am
    94    76    78   am
    95    48    49    2
    96   107   108    1
    97   108   111    1
    98    44    45    1
    99   129   130    1
   100    84    83   ar
   101    85    83   ar
   102   130   133    1
   103   130   131    1
   104    78    79    1
   105   133   134    1
   106    83    82    1
   107   113   112    1
   108   111   112    1
   109   146   145    2
   110   135   134   ar
   111   135   137   ar
   112    79    82    1
   113    79    80    1
   114   134   136   ar
   115   131   139   am
   116   131   132    2
   117   112   114    1
   118   139   140    1
   119   145   144    1
   120   145   147   am
   121    73    71   ar
   122    73    72   ar
   123   144   143    1
   124   137   138   ar
   125    80    81    2
   126   136   138   ar
   127    71    69   ar
   128   143   140    1
   129   140   141    1
   130   142   141    2
   131    72    70   ar
   132   163   161   ar
   133   141   148   am
   134    58    59    1
   135    58    57    1
   136    69    68   ar
   137    69    67   ar
   138    52    53    1
   139   162   161   ar
   140    70    67   ar
   141   161   160    1
   142    68    66   ar
   143    57    56    1
   144    67    65   ar
   145   148   149    1
   146    56    53    1
   147    53    54    1
   148    55    54    2
   149   149   150    1
   150   149   152    1
   151    66    65   ar
   152   160   157    1
   153   154   153   ar
   154    65    64    1
   155   150   151    2
   156   156   157    1
   157   157   158    1
   158    62    63    2
   159    62    61    1
   160   153   152    1
   161   153   155   ar
   162    64    61    1
   163    97    95    1
   164    61    60    1
   165    96    95    1
   166   158   159    2
   167   158   164   am
   168    95    94    1
   169   164   165    1
   170   172   170   ar
   171   194   192    1
   172   171   170   ar
   173   193   192    1
   174   170   169    1
   175   167   166    2
   176   192   191    2
   177    94    91    1
   178   165   166    1
   179   165   168    1
   180   169   168    1
   181    91    92    1
   182    91    90    1
   183   191   190    1
   184    92    93    2
   185   190   189    1
   186   189   188    1
   187   188   185    1
   188   185   184    1
   189   185   186    1
   190   186   187    2
