@<TRIPOS>MOLECULE
tmp/2fdjA00.pdb
 146 135 0 0 0
SMALL
GASTEIGER

@<TRIPOS>ATOM
      1  N         -3.0780   -8.9470   -4.8100 N.3    49  MET49      -0.1245
      2  CA        -1.7850   -8.4630   -4.3220 C.3    49  MET49       0.1570
      3  C         -0.5730   -9.3100   -4.6720 C.2    49  MET49       0.2261
      4  O         -0.6820  -10.4580   -5.1080 O.2    49  MET49      -0.2867
      5  CB        -1.7960   -8.3780   -2.7900 C.3    49  MET49       0.0387
      6  CG        -2.9620   -7.6510   -2.1600 C.3    49  MET49       0.0595
      7  SD        -2.9140   -7.8340   -0.3630 S.3    49  MET49      -0.1393
      8  CE        -3.4850   -6.2030    0.1800 C.3    49  MET49       0.0692
      9  N          4.2670   -3.7450   -0.8470 N.3   106  LEU106     -0.1245
     10  CA         3.0430   -4.4810   -1.1100 C.3   106  LEU106      0.1561
     11  C          2.4170   -3.8380   -2.3380 C.2   106  LEU106      0.2260
     12  O          2.2200   -2.6230   -2.3740 O.2   106  LEU106     -0.2867
     13  CB         2.0940   -4.3840    0.0900 C.3   106  LEU106      0.0270
     14  CG         0.7120   -5.0410   -0.0100 C.3   106  LEU106      0.0019
     15  CD1        0.8290   -6.5350   -0.2780 C.3   106  LEU106      0.0001
     16  CD2       -0.0450   -4.7900    1.2730 C.3   106  LEU106      0.0001
     17  N         -0.8030   -3.6010   -4.6530 N.3   108  ASN108     -0.1240
     18  CA        -2.2350   -3.8640   -4.7180 C.3   108  ASN108      0.1653
     19  C         -2.8160   -3.5280   -6.0870 C.2   108  ASN108      0.2266
     20  O         -2.4970   -2.4880   -6.6690 O.2   108  ASN108     -0.2867
     21  CB        -2.9810   -3.0350   -3.6620 C.3   108  ASN108      0.1155
     22  CG        -2.7290   -3.5080   -2.2400 C.2   108  ASN108      0.2627
     23  OD1       -3.2830   -2.9580   -1.2960 O.2   108  ASN108     -0.2716
     24  ND2       -1.9110   -4.5330   -2.0850 N.am  108  ASN108     -0.0877
     25  N         -6.4730   -3.0750   -8.0450 N.3   110  TYR110     -0.1241
     26  CA        -7.9110   -2.9130   -7.8620 C.3   110  TYR110      0.1605
     27  C         -8.6620   -2.9380   -9.1800 C.2   110  TYR110      0.2264
     28  O         -8.4750   -2.0540  -10.0080 O.2   110  TYR110     -0.2867
     29  CB        -8.2280   -1.5790   -7.1640 C.3   110  TYR110      0.0534
     30  CG        -7.6290   -1.4140   -5.7860 C.ar  110  TYR110     -0.0201
     31  CD1       -6.2810   -1.1020   -5.6270 C.ar  110  TYR110     -0.0009
     32  CD2       -8.4150   -1.5480   -4.6420 C.ar  110  TYR110     -0.0009
     33  CE1       -5.7250   -0.9350   -4.3550 C.ar  110  TYR110      0.0417
     34  CE2       -7.8660   -1.3820   -3.3600 C.ar  110  TYR110      0.0417
     35  CZ        -6.5240   -1.0750   -3.2300 C.ar  110  TYR110      0.1957
     36  OH        -5.9730   -0.9260   -1.9770 O.3   110  TYR110     -0.2866
     37  N        -10.9300   -2.2080   -0.0830 N.3   116  LEU116     -0.1245
     38  CA       -10.0800   -2.6890    0.9970 C.3   116  LEU116      0.1561
     39  C        -10.7580   -2.2530    2.2830 C.2   116  LEU116      0.2260
     40  O        -10.9630   -1.0620    2.4950 O.2   116  LEU116     -0.2867
     41  CB        -8.7020   -2.0340    0.9220 C.3   116  LEU116      0.0270
     42  CG        -7.4350   -2.8890    0.9100 C.3   116  LEU116      0.0019
     43  CD1       -6.2480   -1.9840    1.1730 C.3   116  LEU116      0.0001
     44  CD2       -7.4860   -3.9800    1.9540 C.3   116  LEU116      0.0001
     45  N         -8.4480   -0.9610    8.1650 N.3   119  HIS119     -0.1241
     46  CA        -7.3670   -1.6570    8.8450 C.3   119  HIS119      0.1621
     47  C         -6.2460   -0.6810    9.1840 C.2   119  HIS119      0.2264
     48  O         -6.1850    0.4360    8.6600 O.2   119  HIS119     -0.2867
     49  CB        -6.7880   -2.7500    7.9330 C.3   119  HIS119      0.0745
     50  CG        -6.0250   -2.2050    6.7660 C.ar  119  HIS119      0.0817
     51  ND1       -6.6460   -1.6830    5.6490 N.ar  119  HIS119     -0.2268
     52  CD2       -4.6970   -2.0490    6.5650 C.ar  119  HIS119      0.1154
     53  CE1       -5.7310   -1.2270    4.8140 C.ar  119  HIS119      0.1986
     54  NE2       -4.5380   -1.4360    5.3460 N.ar  119  HIS119     -0.2212
     55  N         -1.8730   -0.4450    9.6910 N.3   121  ASP121     -0.1239
     56  CA        -0.6110   -1.0820    9.3260 C.3   121  ASP121      0.1674
     57  C          0.1580   -1.1370   10.6470 C.2   121  ASP121      0.2266
     58  O          0.8270   -0.1720   11.0160 O.2   121  ASP121     -0.2867
     59  CB         0.1720   -0.2160    8.3350 C.3   121  ASP121      0.1410
     60  CG        -0.6450    0.2030    7.1290 C.2   121  ASP121      0.3668
     61  OD1       -1.5090   -0.5750    6.6660 O.co2 121  ASP121     -0.2456
     62  OD2       -0.3940    1.3200    6.6280 O.co2 121  ASP121     -0.2456
     63  N          2.9810    5.6170    0.0590 N.3   133  SER133     -0.1217
     64  CA         1.9410    5.1200   -0.8370 C.3   133  SER133      0.1889
     65  C          2.0100    5.7650   -2.2160 C.2   133  SER133      0.2288
     66  O          2.0690    6.9850   -2.3270 O.2   133  SER133     -0.2866
     67  CB         0.5760    5.4070   -0.2170 C.3   133  SER133      0.2089
     68  OG        -0.4790    5.1130   -1.1090 O.3   133  SER133     -0.2183
     69  N         -9.8010    7.1740   -0.9860 N.3   142  PHE142     -0.1241
     70  CA        -9.1130    6.6630    0.1930 C.3   142  PHE142      0.1605
     71  C         -9.7780    7.2160    1.4400 C.2   142  PHE142      0.2264
     72  O         -9.9960    8.4230    1.5480 O.2   142  PHE142     -0.2867
     73  CB        -7.6460    7.1010    0.1570 C.3   142  PHE142      0.0534
     74  CG        -6.8430    6.6750    1.3540 C.ar  142  PHE142     -0.0203
     75  CD1       -6.1720    5.4530    1.3560 C.ar  142  PHE142     -0.0042
     76  CD2       -6.7320    7.5070    2.4680 C.ar  142  PHE142     -0.0042
     77  CE1       -5.3970    5.0630    2.4470 C.ar  142  PHE142     -0.0003
     78  CE2       -5.9640    7.1340    3.5680 C.ar  142  PHE142     -0.0003
     79  CZ        -5.2910    5.9070    3.5600 C.ar  142  PHE142     -0.0000
     80  N         -7.4730    9.6260   -4.4280 N.3   158  LEU158     -0.1245
     81  CA        -6.0790    9.3770   -4.7990 C.3   158  LEU158      0.1561
     82  C         -6.0670    9.1050   -6.3040 C.2   158  LEU158      0.2260
     83  O         -6.7780    8.2290   -6.7930 O.2   158  LEU158     -0.2867
     84  CB        -5.5030    8.1860   -4.0240 C.3   158  LEU158      0.0270
     85  CG        -5.2600    8.3980   -2.5270 C.3   158  LEU158      0.0019
     86  CD1       -4.7040    7.1240   -1.9160 C.3   158  LEU158      0.0001
     87  CD2       -4.2900    9.5600   -2.3030 C.3   158  LEU158      0.0001
     88  N         -7.5580    2.7830    7.9450 N.3   175  HIS175     -0.1226
     89  CA        -7.8090    3.2470    6.5830 C.3   175  HIS175      0.1752
     90  C         -8.2810    2.1460    5.6440 C.2   175  HIS175      0.2597
     91  O         -8.2230    0.9620    5.9770 O.2   175  HIS175     -0.2718
     92  CB        -6.5490    3.9050    6.0090 C.3   175  HIS175      0.0759
     93  CG        -5.3500    3.0080    5.9930 C.ar  175  HIS175      0.0818
     94  ND1       -4.5160    2.8720    7.0820 N.ar  175  HIS175     -0.2268
     95  CD2       -4.8570    2.1860    5.0360 C.ar  175  HIS175      0.1154
     96  CE1       -3.5630    2.0030    6.7990 C.ar  175  HIS175      0.1986
     97  NE2       -3.7470    1.5700    5.5610 N.ar  175  HIS175     -0.2212
     98  N         -8.7370    2.5550    4.4610 N.am  176  GLY176     -0.1942
     99  CA        -9.2180    1.6090    3.4680 C.3   176  GLY176      0.2014
    100  C         -9.4820    2.2760    2.1320 C.2   176  GLY176      0.2638
    101  O         -9.1870    3.4520    1.9560 O.2   176  GLY176     -0.2714
    102  N        -10.0490    1.5210    1.1980 N.am  177  ILE177     -0.1977
    103  CA       -10.3520    2.0230   -0.1410 C.3   177  ILE177      0.1596
    104  C        -11.7860    1.6350   -0.4800 C.2   177  ILE177      0.2287
    105  O        -12.1740    0.4780   -0.3550 O.2   177  ILE177     -0.2864
    106  CB        -9.4030    1.3990   -1.2080 C.3   177  ILE177      0.0276
    107  CG1       -7.9660    1.9050   -1.0330 C.3   177  ILE177      0.0022
    108  CG2       -9.9170    1.6790   -2.6270 C.3   177  ILE177      0.0022
    109  CD1       -7.7590    3.3650   -1.4160 C.3   177  ILE177      0.0001
    110  N         -6.4680    0.0000  -10.9550 N.3   192  ARG192     -0.1245
    111  CA        -5.6340    0.9150  -10.1950 C.3   192  ARG192      0.1563
    112  C         -4.5770    0.0950   -9.4670 C.2   192  ARG192      0.2260
    113  O         -4.8730   -0.9810   -8.9530 O.2   192  ARG192     -0.2867
    114  CB        -6.4610    1.6710   -9.1540 C.3   192  ARG192      0.0307
    115  CG        -5.6040    2.4440   -8.1430 C.3   192  ARG192      0.0489
    116  CD        -6.4400    3.0260   -7.0270 C.3   192  ARG192      0.2205
    117  NE        -5.6490    3.8460   -6.1100 N.pl3 192  ARG192     -0.0865
    118  CZ        -5.4020    3.5210   -4.8420 C.cat 192  ARG192      0.5346
    119  NH1       -5.8850    2.3870   -4.3400 N.pl3 192  ARG192      0.1354
    120  NH2       -4.6830    4.3290   -4.0710 N.pl3 192  ARG192      0.1354
    121  N         -1.5140    0.2080   -6.4970 N.3   194  ASN194     -0.1240
    122  CA        -1.0400    0.9710   -5.3640 C.3   194  ASN194      0.1653
    123  C          0.1480    0.2620   -4.7680 C.2   194  ASN194      0.2266
    124  O          0.1050   -0.9560   -4.5390 O.2   194  ASN194     -0.2867
    125  CB        -2.1070    1.1780   -4.2880 C.3   194  ASN194      0.1155
    126  CG        -1.5850    2.0150   -3.1240 C.2   194  ASN194      0.2627
    127  OD1       -1.0800    1.4790   -2.1430 O.2   194  ASN194     -0.2716
    128  ND2       -1.6550    3.3370   -3.2600 N.am  194  ASN194     -0.0877
    129  N          2.8170    0.2540   -1.5510 N.3   196  THR196     -0.1218
    130  CA         3.0350    0.7420   -0.1890 C.3   196  THR196      0.1862
    131  C          4.3670    0.2150    0.3270 C.2   196  THR196      0.2287
    132  O          4.5230   -0.9780    0.5760 O.2   196  THR196     -0.2866
    133  CB         1.8920    0.4020    0.7940 C.3   196  THR196      0.1770
    134  OG1        1.3950   -0.9140    0.5450 O.3   196  THR196     -0.2211
    135  CG2        0.7500    1.4140    0.6670 C.3   196  THR196      0.0375
    136  N          7.3370   -0.2970    2.9050 N.3   198  ARG198     -0.1245
    137  CA         7.4550   -0.4720    4.3440 C.3   198  ARG198      0.1563
    138  C          8.8190   -0.9730    4.7730 C.2   198  ARG198      0.2260
    139  O          9.4800   -1.7170    4.0470 O.2   198  ARG198     -0.2867
    140  CB         6.4320   -1.5040    4.8470 C.3   198  ARG198      0.0307
    141  CG         4.9950   -1.2530    4.4830 C.3   198  ARG198      0.0489
    142  CD         4.5100   -2.2840    3.4680 C.3   198  ARG198      0.2205
    143  NE         3.1600   -1.9900    3.0000 N.pl3 198  ARG198     -0.0865
    144  CZ         2.0480   -2.2980    3.6560 C.cat 198  ARG198      0.5346
    145  NH1        2.1090   -2.9210    4.8240 N.pl3 198  ARG198      0.1354
    146  NH2        0.8730   -1.9360    3.1650 N.pl3 198  ARG198      0.1354
@<TRIPOS>BOND
     1   110   111    1
     2   111   112    1
     3   111   114    1
     4    28    27    2
     5   112   113    2
     6    27    26    1
     7   114   115    1
     8   115   116    1
     9    25    26    1
    10    26    29    1
    11    29    30    1
    12   116   117    1
    13    83    82    2
    14    20    19    2
    15   121   122    1
    16    82    81    1
    17   117   118    2
    18    19    18    1
    19    30    31   ar
    20    30    32   ar
    21    31    33   ar
    22   122   123    1
    23   122   125    1
    24     4     3    2
    25   118   119    1
    26   118   120    1
    27     1     2    1
    28    81    80    1
    29    81    84    1
    30   123   124    2
    31    18    17    1
    32    18    21    1
    33     3     2    1
    34    32    34   ar
    35    33    35   ar
    36     2     5    1
    37   125   126    1
    38    84    85    1
    39    21    22    1
    40    34    35   ar
    41   128   126   am
    42    35    36    1
    43   126   127    2
    44     5     6    1
    45   108   106    1
    46    85    87    1
    47    85    86    1
    48    12    11    2
    49    11    10    1
    50    66    65    2
    51    22    24   am
    52    22    23    2
    53    65    64    1
    54     6     7    1
    55   129   130    1
    56   109   107    1
    57   106   107    1
    58   106   103    1
    59    10     9    1
    60    10    13    1
    61    68    67    1
    62    69    70    1
    63    64    67    1
    64    64    63    1
    65   104   105    2
    66   104   103    1
    67     7     8    1
    68    15    14    1
    69   130   131    1
    70   130   133    1
    71   103   102    1
    72    37    38    1
    73    14    13    1
    74    14    16    1
    75    73    70    1
    76    73    74    1
    77    70    71    1
    78   131   132    2
    79   134   133    1
    80   135   133    1
    81    42    41    1
    82    42    43    1
    83    42    44    1
    84    41    38    1
    85    38    39    1
    86   102   100   am
    87    74    75   ar
    88    74    76   ar
    89    75    77   ar
    90    71    72    2
    91   101   100    2
    92   100    99    1
    93    39    40    2
    94    77    79   ar
    95    76    78   ar
    96   136   137    1
    97   143   142    1
    98   143   144    2
    99   146   144    1
   100   142   141    1
   101    99    98    1
   102    79    78   ar
   103   144   145    1
   104   139   138    2
   105   137   138    1
   106   137   140    1
   107    98    90   am
   108   141   140    1
   109    53    54   ar
   110    53    51   ar
   111    95    97   ar
   112    95    93   ar
   113    54    52   ar
   114    97    96   ar
   115    90    91    2
   116    90    89    1
   117    51    50   ar
   118    93    92    1
   119    93    94   ar
   120    92    89    1
   121    52    50   ar
   122    89    88    1
   123    62    60   ar
   124    61    60   ar
   125    50    49    1
   126    96    94   ar
   127    60    59    1
   128    49    46    1
   129    45    46    1
   130    59    56    1
   131    48    47    2
   132    46    47    1
   133    56    55    1
   134    56    57    1
   135    57    58    2
