@<TRIPOS>MOLECULE
tmp/2fdvB01.pdb
 119 112 0 0 0
SMALL
GASTEIGER

@<TRIPOS>ATOM
      1  N         43.6840   42.5620   63.5330 N.3    76  PHE76      -0.1241
      2  CA        42.7190   41.6370   62.9010 C.3    76  PHE76       0.1605
      3  C         41.8840   40.9780   63.9750 C.2    76  PHE76       0.2264
      4  O         40.6740   40.7810   63.7690 O.2    76  PHE76      -0.2867
      5  CB        43.5170   40.6450   62.0060 C.3    76  PHE76       0.0534
      6  CG        44.2720   41.3370   60.8860 C.ar   76  PHE76      -0.0203
      7  CD1       45.6450   41.1540   60.7510 C.ar   76  PHE76      -0.0042
      8  CD2       43.6390   42.1600   60.0040 C.ar   76  PHE76      -0.0042
      9  CE1       46.3630   41.7850   59.7430 C.ar   76  PHE76      -0.0003
     10  CE2       44.3390   42.8180   58.9690 C.ar   76  PHE76      -0.0003
     11  CZ        45.7200   42.6210   58.8480 C.ar   76  PHE76      -0.0000
     12  N         37.9350   39.5650   64.0540 N.3    80  PHE80      -0.1241
     13  CA        37.7790   38.0850   64.0110 C.3    80  PHE80       0.1605
     14  C         37.4380   37.3920   65.3280 C.2    80  PHE80       0.2264
     15  O         36.7330   36.3630   65.3640 O.2    80  PHE80      -0.2867
     16  CB        38.9960   37.4620   63.3830 C.3    80  PHE80       0.0534
     17  CG        39.0810   37.7340   61.9340 C.ar   80  PHE80      -0.0203
     18  CD1       39.8420   38.7920   61.4320 C.ar   80  PHE80      -0.0042
     19  CD2       38.3060   36.9970   61.0300 C.ar   80  PHE80      -0.0042
     20  CE1       39.8140   39.1010   60.0600 C.ar   80  PHE80      -0.0003
     21  CE2       38.2890   37.3040   59.6900 C.ar   80  PHE80      -0.0003
     22  CZ        39.0420   38.3670   59.1910 C.ar   80  PHE80      -0.0000
     23  N         41.9470   31.7940   59.9230 N.3    86  VAL86      -0.1231
     24  CA        43.3540   32.2910   60.1050 C.3    86  VAL86       0.1692
     25  C         43.7150   32.6160   61.5710 C.2    86  VAL86       0.2592
     26  O         44.6760   32.0910   62.1270 O.2    86  VAL86      -0.2718
     27  CB        43.5470   33.5930   59.2970 C.3    86  VAL86       0.0266
     28  CG1       44.9940   34.1370   59.4710 C.3    86  VAL86       0.0020
     29  CG2       43.3070   33.3190   57.7380 C.3    86  VAL86       0.0020
     30  N         42.9270   33.5220   62.1370 N.am   87  PHE87      -0.1976
     31  CA        43.1470   34.0440   63.4970 C.3    87  PHE87       0.1639
     32  C         42.3650   33.2830   64.5230 C.2    87  PHE87       0.2290
     33  O         41.5740   33.8730   65.2970 O.2    87  PHE87      -0.2864
     34  CB        42.7740   35.5260   63.4780 C.3    87  PHE87       0.0560
     35  CG        43.5700   36.3100   62.4500 C.ar   87  PHE87      -0.0200
     36  CD1       42.9630   36.8010   61.3020 C.ar   87  PHE87      -0.0042
     37  CD2       44.9580   36.5020   62.6160 C.ar   87  PHE87      -0.0042
     38  CE1       43.7310   37.4810   60.2890 C.ar   87  PHE87      -0.0003
     39  CE2       45.7060   37.1630   61.6270 C.ar   87  PHE87      -0.0003
     40  CZ        45.0970   37.6450   60.4720 C.ar   87  PHE87      -0.0000
     41  N         45.9960   47.1890   55.7740 N.3   178  PHE178     -0.1241
     42  CA        47.3290   46.6260   55.7220 C.3   178  PHE178      0.1605
     43  C         48.3190   47.7380   56.0200 C.2   178  PHE178      0.2264
     44  O         49.3580   47.4880   56.6790 O.2   178  PHE178     -0.2867
     45  CB        47.6410   45.9740   54.3780 C.3   178  PHE178      0.0534
     46  CG        47.4060   44.4840   54.3830 C.ar  178  PHE178     -0.0203
     47  CD1       46.1330   43.9810   54.5880 C.ar  178  PHE178     -0.0042
     48  CD2       48.4470   43.6120   54.1970 C.ar  178  PHE178     -0.0042
     49  CE1       45.8910   42.6030   54.6190 C.ar  178  PHE178     -0.0003
     50  CE2       48.2210   42.2180   54.2230 C.ar  178  PHE178     -0.0003
     51  CZ        46.9190   41.7440   54.4420 C.ar  178  PHE178     -0.0000
     52  N         37.7380   47.2700   58.6290 N.3   210  LEU210     -0.1245
     53  CA        37.4800   45.8120   58.7740 C.3   210  LEU210      0.1561
     54  C         35.9760   45.5530   58.8330 C.2   210  LEU210      0.2260
     55  O         35.4830   44.5600   58.2740 O.2   210  LEU210     -0.2867
     56  CB        38.1110   45.2420   60.0560 C.3   210  LEU210      0.0270
     57  CG        39.6100   45.0560   59.8330 C.3   210  LEU210      0.0019
     58  CD1       40.3080   44.9500   61.2010 C.3   210  LEU210      0.0001
     59  CD2       39.8840   43.8000   58.9560 C.3   210  LEU210      0.0001
     60  N         38.4390   35.9780   55.5410 N.3   266  ASN266     -0.1240
     61  CA        39.8610   35.6070   55.5120 C.3   266  ASN266      0.1653
     62  C         40.3450   35.2820   54.0830 C.2   266  ASN266      0.2266
     63  O         41.4270   35.6880   53.6510 O.2   266  ASN266     -0.2867
     64  CB        40.1740   34.3400   56.3200 C.3   266  ASN266      0.1155
     65  CG        40.1420   34.5390   57.8150 C.2   266  ASN266      0.2627
     66  OD1       39.6790   33.6760   58.5680 O.2   266  ASN266     -0.2716
     67  ND2       40.7220   35.6510   58.2890 N.am  266  ASN266     -0.0877
     68  N         40.2200   38.6630   51.7780 N.3   269  ILE269     -0.1231
     69  CA        41.3220   39.6120   52.0250 C.3   269  ILE269      0.1692
     70  C         42.6370   38.9760   51.8130 C.2   269  ILE269      0.2592
     71  O         43.4790   39.5420   51.1010 O.2   269  ILE269     -0.2718
     72  CB        41.2910   40.2130   53.4790 C.3   269  ILE269      0.0266
     73  CG1       39.9730   40.9580   53.6750 C.3   269  ILE269      0.0019
     74  CG2       42.5490   41.1360   53.7160 C.3   269  ILE269      0.0020
     75  CD1       39.6830   41.4040   55.1520 C.3   269  ILE269      0.0001
     76  N         42.8760   37.8200   52.4320 N.am  270  GLY270     -0.1957
     77  CA        44.1590   37.1600   52.2880 C.3   270  GLY270      0.1869
     78  C         44.4710   36.8520   50.8190 C.2   270  GLY270      0.2309
     79  O         45.6150   36.9940   50.3450 O.2   270  GLY270     -0.2863
     80  N         48.0790   40.1600   49.5510 N.3   274  THR274     -0.1218
     81  CA        49.4920   39.8580   49.4840 C.3   274  THR274      0.1862
     82  C         50.0220   39.6400   48.0710 C.2   274  THR274      0.2287
     83  O         51.1720   40.0570   47.7650 O.2   274  THR274     -0.2866
     84  CB        49.7800   38.6450   50.4240 C.3   274  THR274      0.1770
     85  OG1       48.9540   37.5670   50.0010 O.3   274  THR274     -0.2211
     86  CG2       49.2430   38.9500   51.8530 C.3   274  THR274      0.0375
     87  N         55.4020   39.7490   54.3170 N.3   335  ILE335     -0.1245
     88  CA        54.8960   39.4950   55.6920 C.3   335  ILE335      0.1561
     89  C         56.2130   39.1720   56.4310 C.2   335  ILE335      0.2260
     90  O         56.5770   38.0070   56.7000 O.2   335  ILE335     -0.2867
     91  CB        53.9210   38.2660   55.7410 C.3   335  ILE335      0.0252
     92  CG1       52.7670   38.4330   54.7380 C.3   335  ILE335      0.0019
     93  CG2       53.3280   38.1290   57.1900 C.3   335  ILE335      0.0019
     94  CD1       51.7850   39.5950   54.9570 C.3   335  ILE335      0.0001
     95  N         52.7090   35.5060   60.5450 N.3   339  LEU339     -0.1245
     96  CA        51.5540   35.6940   61.4360 C.3   339  LEU339      0.1561
     97  C         52.0610   34.9730   62.6800 C.2   339  LEU339      0.2260
     98  O         52.6210   33.8310   62.6420 O.2   339  LEU339     -0.2867
     99  CB        50.2910   35.0180   60.8660 C.3   339  LEU339      0.0270
    100  CG        49.4900   35.9250   59.9020 C.3   339  LEU339      0.0019
    101  CD1       50.3010   36.2670   58.6120 C.3   339  LEU339      0.0001
    102  CD2       48.2090   35.0930   59.4890 C.3   339  LEU339      0.0001
    103  N         50.9330   28.8450   54.9640 N.3   408  CYS408     -0.1235
    104  CA        49.9680   29.4290   54.0480 C.3   408  CYS408      0.1677
    105  C         49.3960   28.3370   53.1120 C.2   408  CYS408      0.2270
    106  O         50.1370   27.8540   52.2880 O.2   408  CYS408     -0.2867
    107  CB        50.6240   30.4500   53.1310 C.3   408  CYS408      0.0956
    108  SG        49.3850   31.2360   52.0460 S.3   408  CYS408     -0.0801
    109  N         53.4790   44.8250   60.2220 N.3   449  PHE449     -0.1241
    110  CA        52.9210   43.5070   59.9360 C.3   449  PHE449      0.1605
    111  C         53.2750   43.1280   58.4690 C.2   449  PHE449      0.2264
    112  O         53.5230   41.9370   58.1440 O.2   449  PHE449     -0.2867
    113  CB        51.3990   43.5450   60.1120 C.3   449  PHE449      0.0534
    114  CG        50.7150   42.2890   59.6220 C.ar  449  PHE449     -0.0203
    115  CD1       50.8520   41.0770   60.3280 C.ar  449  PHE449     -0.0042
    116  CD2       50.0220   42.3030   58.4230 C.ar  449  PHE449     -0.0042
    117  CE1       50.2930   39.8380   59.8150 C.ar  449  PHE449     -0.0003
    118  CE2       49.4820   41.1060   57.9170 C.ar  449  PHE449     -0.0003
    119  CZ        49.6310   39.8830   58.6250 C.ar  449  PHE449     -0.0000
@<TRIPOS>BOND
     1    83    82    2
     2    82    81    1
     3    81    80    1
     4    81    84    1
     5    85    84    1
     6    79    78    2
     7    84    86    1
     8    78    77    1
     9    71    70    2
    10    68    69    1
    11    70    69    1
    12    70    76   am
    13    69    72    1
    14   108   107    1
    15    77    76    1
    16   106   105    2
    17   105   104    1
    18   107   104    1
    19    72    73    1
    20    72    74    1
    21    63    62    2
    22    73    75    1
    23   104   103    1
    24    62    61    1
    25    48    50   ar
    26    48    46   ar
    27    50    51   ar
    28    87    88    1
    29    45    46    1
    30    45    42    1
    31    46    47   ar
    32    51    49   ar
    33    47    49   ar
    34    92    94    1
    35    92    91    1
    36    61    60    1
    37    61    64    1
    38    88    91    1
    39    88    89    1
    40    42    41    1
    41    42    43    1
    42    91    93    1
    43    43    44    2
    44    64    65    1
    45    89    90    2
    46    29    27    1
    47    65    67   am
    48    65    66    2
    49   118   116   ar
    50   118   119   ar
    51   112   111    2
    52    55    54    2
    53   116   114   ar
    54   111   110    1
    55   101   100    1
    56   119   117   ar
    57    52    53    1
    58    53    54    1
    59    53    56    1
    60    11    10   ar
    61    11     9   ar
    62    59    57    1
    63    10     8   ar
    64    22    21   ar
    65    22    20   ar
    66    27    28    1
    67    27    24    1
    68   102   100    1
    69   114   113    1
    70   114   115   ar
    71    21    19   ar
    72     9     7   ar
    73   117   115   ar
    74    57    56    1
    75    57    58    1
    76   100    99    1
    77    23    24    1
    78   110   113    1
    79   110   109    1
    80     8     6   ar
    81    20    18   ar
    82    24    25    1
    83    38    40   ar
    84    38    36   ar
    85    40    39   ar
    86    95    96    1
    87     7     6   ar
    88    99    96    1
    89     6     5    1
    90    19    17   ar
    91    36    35   ar
    92    18    17   ar
    93    96    97    1
    94    25    26    2
    95    25    30   am
    96    39    37   ar
    97    17    16    1
    98     5     2    1
    99    30    31    1
   100    35    37   ar
   101    35    34    1
   102    98    97    2
   103     2     1    1
   104     2     3    1
   105    16    13    1
   106    34    31    1
   107    31    32    1
   108     4     3    2
   109    13    12    1
   110    13    14    1
   111    32    33    2
   112    14    15    2
