@<TRIPOS>MOLECULE
tmp/2fdwA01.pdb
 111 105 0 0 0
SMALL
GASTEIGER

@<TRIPOS>ATOM
      1  N         57.0900   72.3120   66.8870 N.3    78  PHE78      -0.1241
      2  CA        57.9980   73.3770   66.4690 C.3    78  PHE78       0.1605
      3  C         58.7840   73.9350   67.6490 C.2    78  PHE78       0.2264
      4  O         59.9680   74.2490   67.5180 O.2    78  PHE78      -0.2867
      5  CB        57.2150   74.4870   65.7650 C.3    78  PHE78       0.0534
      6  CG        56.5380   74.0320   64.5000 C.ar   78  PHE78      -0.0203
      7  CD1       55.1980   74.3200   64.2650 C.ar   78  PHE78      -0.0042
      8  CD2       57.2320   73.2810   63.5590 C.ar   78  PHE78      -0.0042
      9  CE1       54.5580   73.8590   63.1090 C.ar   78  PHE78      -0.0003
     10  CE2       56.5990   72.8190   62.4030 C.ar   78  PHE78      -0.0003
     11  CZ        55.2580   73.1090   62.1820 C.ar   78  PHE78      -0.0000
     12  N         62.5350   75.5200   68.1330 N.3    82  PHE82      -0.1241
     13  CA        62.5400   76.9670   68.3180 C.3    82  PHE82       0.1605
     14  C         62.7350   77.4640   69.7360 C.2    82  PHE82       0.2264
     15  O         63.4190   78.4630   69.9500 O.2    82  PHE82      -0.2867
     16  CB        61.2860   77.5900   67.7050 C.3    82  PHE82       0.0534
     17  CG        61.3300   77.6360   66.2150 C.ar   82  PHE82      -0.0203
     18  CD1       60.8460   76.5800   65.4590 C.ar   82  PHE82      -0.0042
     19  CD2       61.9260   78.7140   65.5640 C.ar   82  PHE82      -0.0042
     20  CE1       60.9540   76.5900   64.0750 C.ar   82  PHE82      -0.0003
     21  CE2       62.0410   78.7370   64.1840 C.ar   82  PHE82      -0.0003
     22  CZ        61.5520   77.6690   63.4330 C.ar   82  PHE82      -0.0000
     23  N         58.1990   84.0790   64.8910 N.3    88  VAL88      -0.1231
     24  CA        56.8910   83.4280   64.9950 C.3    88  VAL88       0.1692
     25  C         56.4900   82.9610   66.3900 C.2    88  VAL88       0.2592
     26  O         55.4760   83.3890   66.9350 O.2    88  VAL88      -0.2718
     27  CB        56.7890   82.1900   64.0540 C.3    88  VAL88       0.0266
     28  CG1       55.4220   81.5250   64.2240 C.3    88  VAL88       0.0020
     29  CG2       56.9990   82.5970   62.6070 C.3    88  VAL88       0.0020
     30  N         57.2900   82.0740   66.9630 N.am   89  PHE89      -0.1976
     31  CA        56.9730   81.5110   68.2630 C.3    89  PHE89       0.1639
     32  C         57.4940   82.2750   69.4680 C.2    89  PHE89       0.2290
     33  O         57.6640   81.7140   70.5480 O.2    89  PHE89      -0.2864
     34  CB        57.4330   80.0550   68.2790 C.3    89  PHE89       0.0560
     35  CG        56.8370   79.2460   67.1670 C.ar   89  PHE89      -0.0200
     36  CD1       57.6060   78.8580   66.0740 C.ar   89  PHE89      -0.0042
     37  CD2       55.4790   78.9490   67.1670 C.ar   89  PHE89      -0.0042
     38  CE1       57.0270   78.1920   64.9930 C.ar   89  PHE89      -0.0003
     39  CE2       54.8910   78.2820   66.0920 C.ar   89  PHE89      -0.0003
     40  CZ        55.6660   77.9040   65.0020 C.ar   89  PHE89      -0.0000
     41  N         55.1220   69.2310   58.1010 N.3   180  PHE180     -0.1241
     42  CA        53.7390   69.6590   57.9240 C.3   180  PHE180      0.1605
     43  C         52.7950   68.4650   58.0200 C.2   180  PHE180      0.2264
     44  O         51.7120   68.5700   58.5900 O.2   180  PHE180     -0.2867
     45  CB        53.5500   70.3480   56.5720 C.3   180  PHE180      0.0534
     46  CG        53.4200   71.8330   56.6740 C.ar  180  PHE180     -0.0203
     47  CD1       54.4210   72.5920   57.2810 C.ar  180  PHE180     -0.0042
     48  CD2       52.3020   72.4790   56.1620 C.ar  180  PHE180     -0.0042
     49  CE1       54.3100   73.9740   57.3760 C.ar  180  PHE180     -0.0003
     50  CE2       52.1790   73.8600   56.2490 C.ar  180  PHE180     -0.0003
     51  CZ        53.1830   74.6110   56.8560 C.ar  180  PHE180     -0.0000
     52  N         62.0060   80.5010   60.2800 N.3   268  ASN268     -0.1240
     53  CA        60.5770   80.8160   60.2590 C.3   268  ASN268      0.1653
     54  C         60.1300   81.2130   58.8510 C.2   268  ASN268      0.2266
     55  O         59.1540   80.6790   58.3150 O.2   268  ASN268     -0.2867
     56  CB        60.2740   81.9840   61.2020 C.3   268  ASN268      0.1155
     57  CG        60.1280   81.5560   62.6500 C.2   268  ASN268      0.2627
     58  OD1       60.2900   82.3670   63.5570 O.2   268  ASN268     -0.2716
     59  ND2       59.7980   80.2910   62.8730 N.am  268  ASN268     -0.0877
     60  N         60.5160   78.2380   56.1680 N.3   271  ILE271     -0.1231
     61  CA        59.4640   77.2300   56.2840 C.3   271  ILE271      0.1692
     62  C         58.0870   77.8630   56.0700 C.2   271  ILE271      0.2592
     63  O         57.3160   77.4370   55.2040 O.2   271  ILE271     -0.2718
     64  CB        59.4940   76.5490   57.6820 C.3   271  ILE271      0.0266
     65  CG1       60.8500   75.8650   57.9040 C.3   271  ILE271      0.0019
     66  CG2       58.3900   75.4990   57.7900 C.3   271  ILE271      0.0020
     67  CD1       61.0040   75.2430   59.2890 C.3   271  ILE271      0.0001
     68  N         57.7840   78.8820   56.8660 N.am  272  GLY272     -0.1957
     69  CA        56.5030   79.5520   56.7500 C.3   272  GLY272      0.1869
     70  C         56.2200   80.0780   55.3530 C.2   272  GLY272      0.2309
     71  O         55.0840   80.0260   54.8800 O.2   272  GLY272     -0.2863
     72  N         53.2920   76.6360   53.1930 N.3   276  THR276     -0.1218
     73  CA        51.9290   77.1600   53.1870 C.3   276  THR276      0.1862
     74  C         51.4530   77.4020   51.7630 C.2   276  THR276      0.2287
     75  O         50.4230   76.8850   51.3480 O.2   276  THR276     -0.2866
     76  CB        51.8200   78.4840   53.9910 C.3   276  THR276      0.1770
     77  OG1       52.8090   79.4200   53.5320 O.3   276  THR276     -0.2211
     78  CG2       52.0270   78.2260   55.4640 C.3   276  THR276      0.0375
     79  N         45.7940   76.1580   57.3020 N.3   337  ILE337     -0.1245
     80  CA        46.1820   76.2110   58.7150 C.3   337  ILE337      0.1561
     81  C         44.8280   76.3180   59.4130 C.2   337  ILE337      0.2260
     82  O         44.4280   77.3980   59.8550 O.2   337  ILE337     -0.2867
     83  CB        47.0340   77.4630   59.0260 C.3   337  ILE337      0.0252
     84  CG1       48.2050   77.5600   58.0410 C.3   337  ILE337      0.0019
     85  CG2       47.5500   77.4000   60.4660 C.3   337  ILE337      0.0019
     86  CD1       49.1350   76.3420   58.0610 C.3   337  ILE337      0.0001
     87  N         47.7870   79.5520   64.2780 N.3   341  LEU341     -0.1245
     88  CA        48.8980   79.2640   65.1810 C.3   341  LEU341      0.1561
     89  C         48.3370   79.8180   66.4900 C.2   341  LEU341      0.2260
     90  O         47.8000   80.9240   66.5120 O.2   341  LEU341     -0.2867
     91  CB        50.1720   80.0190   64.7730 C.3   341  LEU341      0.0270
     92  CG        51.0190   79.3640   63.6730 C.3   341  LEU341      0.0019
     93  CD1       50.2190   79.2470   62.3870 C.3   341  LEU341      0.0001
     94  CD2       52.2640   80.1980   63.4250 C.3   341  LEU341      0.0001
     95  N         49.5350   87.0190   59.8330 N.3   410  CYS410     -0.1235
     96  CA        50.5920   86.6970   58.8730 C.3   410  CYS410      0.1677
     97  C         51.1480   87.9220   58.1490 C.2   410  CYS410      0.2270
     98  O         50.4400   88.5410   57.3610 O.2   410  CYS410     -0.2867
     99  CB        50.0660   85.7140   57.8240 C.3   410  CYS410      0.0956
    100  SG        51.3170   85.1340   56.6550 S.3   410  CYS410     -0.0801
    101  N         47.5550   70.3900   62.4990 N.3   451  PHE451     -0.1241
    102  CA        48.1200   71.7330   62.4670 C.3   451  PHE451      0.1605
    103  C         47.8310   72.3370   61.0890 C.2   451  PHE451      0.2264
    104  O         47.5870   73.5380   60.9560 O.2   451  PHE451     -0.2867
    105  CB        49.6250   71.7120   62.6720 C.3   451  PHE451      0.0534
    106  CG        50.2730   73.0170   62.3560 C.ar  451  PHE451     -0.0203
    107  CD1       50.0540   74.1240   63.1700 C.ar  451  PHE451     -0.0042
    108  CD2       51.0390   73.1670   61.2040 C.ar  451  PHE451     -0.0042
    109  CE1       50.5830   75.3680   62.8420 C.ar  451  PHE451     -0.0003
    110  CE2       51.5740   74.3990   60.8660 C.ar  451  PHE451     -0.0003
    111  CZ        51.3430   75.5090   61.6900 C.ar  451  PHE451     -0.0000
@<TRIPOS>BOND
     1    75    74    2
     2    74    73    1
     3    73    72    1
     4    73    76    1
     5    77    76    1
     6    76    78    1
     7    71    70    2
     8    63    62    2
     9    70    69    1
    10    62    61    1
    11    62    68   am
    12    48    50   ar
    13    48    46   ar
    14    60    61    1
    15    50    51   ar
    16    61    64    1
    17    45    46    1
    18    45    42    1
    19   100    99    1
    20    46    47   ar
    21    69    68    1
    22    51    49   ar
    23    47    49   ar
    24    79    80    1
    25    98    97    2
    26    64    66    1
    27    64    65    1
    28    99    96    1
    29    65    67    1
    30    42    43    1
    31    42    41    1
    32    43    44    2
    33    84    86    1
    34    84    83    1
    35    97    96    1
    36    55    54    2
    37    80    83    1
    38    80    81    1
    39    54    53    1
    40    96    95    1
    41    83    85    1
    42    81    82    2
    43    53    52    1
    44    53    56    1
    45   110   108   ar
    46   110   111   ar
    47   104   103    2
    48   103   102    1
    49    56    57    1
    50   108   106   ar
    51   111   109   ar
    52    11    10   ar
    53    11     9   ar
    54   106   105    1
    55   106   107   ar
    56    93    92    1
    57    10     8   ar
    58   102   101    1
    59   102   105    1
    60    29    27    1
    61    57    59   am
    62    57    58    2
    63   109   107   ar
    64     9     7   ar
    65    94    92    1
    66    22    20   ar
    67    22    21   ar
    68     8     6   ar
    69    92    91    1
    70    27    28    1
    71    27    24    1
    72    20    18   ar
    73    21    19   ar
    74     7     6   ar
    75    87    88    1
    76     6     5    1
    77    91    88    1
    78    23    24    1
    79    38    40   ar
    80    38    36   ar
    81    24    25    1
    82    40    39   ar
    83    88    89    1
    84    18    17   ar
    85    19    17   ar
    86     5     2    1
    87    36    35   ar
    88    39    37   ar
    89    17    16    1
    90    25    26    2
    91    25    30   am
    92     2     1    1
    93     2     3    1
    94    89    90    2
    95    30    31    1
    96    35    37   ar
    97    35    34    1
    98     4     3    2
    99    16    13    1
   100    12    13    1
   101    31    34    1
   102    31    32    1
   103    13    14    1
   104    32    33    2
   105    14    15    2
