@<TRIPOS>MOLECULE
tmp/2fdyA01.pdb
 120 114 0 0 0
SMALL
GASTEIGER

@<TRIPOS>ATOM
      1  N         57.5410   72.4020   67.0200 N.3    78  PHE78      -0.1241
      2  CA        58.4570   73.4580   66.6000 C.3    78  PHE78       0.1605
      3  C         59.2560   74.0180   67.7680 C.2    78  PHE78       0.2264
      4  O         60.4310   74.3560   67.6140 O.2    78  PHE78      -0.2867
      5  CB        57.6900   74.5750   65.8950 C.3    78  PHE78       0.0534
      6  CG        57.1360   74.1610   64.5650 C.ar   78  PHE78      -0.0203
      7  CD1       55.7720   73.9720   64.3890 C.ar   78  PHE78      -0.0042
      8  CD2       57.9940   73.8900   63.5010 C.ar   78  PHE78      -0.0042
      9  CE1       55.2690   73.5140   63.1720 C.ar   78  PHE78      -0.0003
     10  CE2       57.4990   73.4310   62.2800 C.ar   78  PHE78      -0.0003
     11  CZ        56.1330   73.2420   62.1180 C.ar   78  PHE78      -0.0000
     12  N         63.0410   75.7150   68.2810 N.3    82  PHE82      -0.1241
     13  CA        63.0220   77.1580   68.5100 C.3    82  PHE82       0.1605
     14  C         63.1820   77.6100   69.9610 C.2    82  PHE82       0.2264
     15  O         63.8480   78.6170   70.2340 O.2    82  PHE82      -0.2867
     16  CB        61.7510   77.7620   67.9040 C.3    82  PHE82       0.0534
     17  CG        61.7190   77.6860   66.4060 C.ar   82  PHE82      -0.0203
     18  CD1       60.9840   76.7040   65.7580 C.ar   82  PHE82      -0.0042
     19  CD2       62.4870   78.5590   65.6450 C.ar   82  PHE82      -0.0042
     20  CE1       61.0160   76.5890   64.3720 C.ar   82  PHE82      -0.0003
     21  CE2       62.5280   78.4530   64.2540 C.ar   82  PHE82      -0.0003
     22  CZ        61.7890   77.4620   63.6180 C.ar   82  PHE82      -0.0000
     23  N         58.6890   84.0520   65.0780 N.3    88  VAL88      -0.1231
     24  CA        57.3870   83.3880   65.2090 C.3    88  VAL88       0.1692
     25  C         56.9620   83.0000   66.6280 C.2    88  VAL88       0.2592
     26  O         55.8520   83.3090   67.0570 O.2    88  VAL88      -0.2718
     27  CB        57.3210   82.1090   64.3340 C.3    88  VAL88       0.0266
     28  CG1       55.9900   81.4130   64.5400 C.3    88  VAL88       0.0020
     29  CG2       57.4970   82.4670   62.8620 C.3    88  VAL88       0.0020
     30  N         57.8420   82.3280   67.3590 N.am   89  PHE89      -0.1976
     31  CA        57.4970   81.8860   68.6990 C.3    89  PHE89       0.1639
     32  C         57.9500   82.7610   69.8580 C.2    89  PHE89       0.2290
     33  O         57.7790   82.3880   71.0210 O.2    89  PHE89      -0.2864
     34  CB        57.9830   80.4480   68.8860 C.3    89  PHE89       0.0560
     35  CG        57.4130   79.5050   67.8750 C.ar   89  PHE89      -0.0200
     36  CD1       58.1760   79.0810   66.7960 C.ar   89  PHE89      -0.0042
     37  CD2       56.0750   79.1160   67.9520 C.ar   89  PHE89      -0.0042
     38  CE1       57.6180   78.2870   65.7980 C.ar   89  PHE89      -0.0003
     39  CE2       55.5040   78.3220   66.9590 C.ar   89  PHE89      -0.0003
     40  CZ        56.2780   77.9080   65.8770 C.ar   89  PHE89      -0.0000
     41  N         55.8640   69.2270   58.6130 N.3   180  PHE180     -0.1241
     42  CA        54.5340   69.7580   58.3520 C.3   180  PHE180      0.1605
     43  C         53.5020   68.6430   58.4900 C.2   180  PHE180      0.2264
     44  O         52.4870   68.8070   59.1740 O.2   180  PHE180     -0.2867
     45  CB        54.4970   70.3600   56.9390 C.3   180  PHE180      0.0534
     46  CG        53.4410   71.4150   56.7450 C.ar  180  PHE180     -0.0203
     47  CD1       53.3750   72.5200   57.5920 C.ar  180  PHE180     -0.0042
     48  CD2       52.5410   71.3290   55.6830 C.ar  180  PHE180     -0.0042
     49  CE1       52.4240   73.5310   57.3830 C.ar  180  PHE180     -0.0003
     50  CE2       51.5850   72.3330   55.4610 C.ar  180  PHE180     -0.0003
     51  CZ        51.5290   73.4370   56.3130 C.ar  180  PHE180     -0.0000
     52  N         62.4740   80.5280   60.5190 N.3   268  ASN268     -0.1240
     53  CA        61.0470   80.8430   60.4610 C.3   268  ASN268      0.1653
     54  C         60.6480   81.2830   59.0460 C.2   268  ASN268      0.2266
     55  O         59.6530   80.8160   58.4870 O.2   268  ASN268     -0.2867
     56  CB        60.6970   81.9930   61.4080 C.3   268  ASN268      0.1155
     57  CG        60.6420   81.5760   62.8590 C.2   268  ASN268      0.2627
     58  OD1       60.7940   82.4130   63.7440 O.2   268  ASN268     -0.2716
     59  ND2       60.4050   80.2880   63.1180 N.am  268  ASN268     -0.0877
     60  N         61.0900   78.3250   56.3380 N.3   271  ILE271     -0.1231
     61  CA        60.0040   77.3470   56.4150 C.3   271  ILE271      0.1692
     62  C         58.6930   78.0290   56.0540 C.2   271  ILE271      0.2592
     63  O         57.9430   77.5560   55.1970 O.2   271  ILE271     -0.2718
     64  CB        59.8660   76.7710   57.8350 C.3   271  ILE271      0.0266
     65  CG1       61.1210   75.9780   58.2040 C.3   271  ILE271      0.0019
     66  CG2       58.6230   75.8980   57.9220 C.3   271  ILE271      0.0020
     67  CD1       61.1730   75.6040   59.6580 C.3   271  ILE271      0.0001
     68  N         58.4260   79.1450   56.7220 N.am  272  GLY272     -0.1957
     69  CA        57.2050   79.8890   56.4790 C.3   272  GLY272      0.1869
     70  C         57.0160   80.3420   55.0430 C.2   272  GLY272      0.2309
     71  O         55.9020   80.2940   54.5040 O.2   272  GLY272     -0.2863
     72  N         56.4590   76.1860   52.8350 N.3   275  GLU275     -0.1231
     73  CA        55.3940   75.2020   53.0030 C.3   275  GLU275      0.1699
     74  C         53.9280   75.5670   52.8080 C.2   275  GLU275      0.2592
     75  O         53.1970   74.8040   52.1690 O.2   275  GLU275     -0.2718
     76  CB        55.5600   74.4890   54.3560 C.3   275  GLU275      0.0402
     77  CG        55.1400   73.0200   54.3120 C.3   275  GLU275      0.1161
     78  CD        55.8020   72.2670   53.1640 C.2   275  GLU275      0.3649
     79  OE1       55.2450   71.2450   52.7030 O.co2 275  GLU275     -0.2457
     80  OE2       56.8920   72.6970   52.7210 O.co2 275  GLU275     -0.2457
     81  N         53.4740   76.6990   53.3410 N.am  276  THR276     -0.1953
     82  CA        52.0600   77.0400   53.1720 C.3   276  THR276      0.1897
     83  C         51.6590   77.3730   51.7420 C.2   276  THR276      0.2313
     84  O         50.6250   76.9090   51.2730 O.2   276  THR276     -0.2863
     85  CB        51.6240   78.1980   54.0810 C.3   276  THR276      0.1794
     86  OG1       52.5890   79.2510   54.0150 O.3   276  THR276     -0.2208
     87  CG2       51.4500   77.7110   55.5160 C.3   276  THR276      0.0378
     88  N         46.1810   76.1060   57.6290 N.3   337  ILE337     -0.1245
     89  CA        46.5570   76.1670   59.0550 C.3   337  ILE337      0.1561
     90  C         45.2040   76.3170   59.7680 C.2   337  ILE337      0.2260
     91  O         44.8230   77.4160   60.1920 O.2   337  ILE337     -0.2867
     92  CB        47.4310   77.4090   59.3640 C.3   337  ILE337      0.0252
     93  CG1       48.6580   77.4510   58.4410 C.3   337  ILE337      0.0019
     94  CG2       47.8640   77.3780   60.8250 C.3   337  ILE337      0.0019
     95  CD1       49.5820   76.2540   58.6040 C.3   337  ILE337      0.0001
     96  N         48.1430   79.6410   64.5420 N.3   341  LEU341     -0.1245
     97  CA        49.2950   79.4170   65.4040 C.3   341  LEU341      0.1561
     98  C         48.7510   79.9290   66.7380 C.2   341  LEU341      0.2260
     99  O         48.2410   81.0470   66.8010 O.2   341  LEU341     -0.2867
    100  CB        50.4850   80.2840   64.9870 C.3   341  LEU341      0.0270
    101  CG        51.6280   79.6280   64.2140 C.3   341  LEU341      0.0019
    102  CD1       51.9890   78.2990   64.8870 C.3   341  LEU341      0.0001
    103  CD2       51.2280   79.4140   62.7720 C.3   341  LEU341      0.0001
    104  N         49.9890   86.9280   60.0480 N.3   410  CYS410     -0.1235
    105  CA        51.0500   86.6210   59.0980 C.3   410  CYS410      0.1677
    106  C         51.6050   87.8460   58.3730 C.2   410  CYS410      0.2270
    107  O         50.8960   88.4530   57.5770 O.2   410  CYS410     -0.2867
    108  CB        50.5140   85.6450   58.0560 C.3   410  CYS410      0.0956
    109  SG        51.7290   85.0850   56.9030 S.3   410  CYS410     -0.0801
    110  N         47.9100   70.3850   62.8290 N.3   451  PHE451     -0.1241
    111  CA        48.4480   71.7390   62.8230 C.3   451  PHE451      0.1605
    112  C         48.1570   72.3470   61.4450 C.2   451  PHE451      0.2264
    113  O         47.9260   73.5530   61.3100 O.2   451  PHE451     -0.2867
    114  CB        49.9540   71.7350   63.0510 C.3   451  PHE451      0.0534
    115  CG        50.5880   73.0560   62.7790 C.ar  451  PHE451     -0.0203
    116  CD1       50.3350   74.1390   63.6090 C.ar  451  PHE451     -0.0042
    117  CD2       51.3790   73.2420   61.6480 C.ar  451  PHE451     -0.0042
    118  CE1       50.8520   75.3970   63.3170 C.ar  451  PHE451     -0.0003
    119  CE2       51.9040   74.4910   61.3440 C.ar  451  PHE451     -0.0003
    120  CZ        51.6380   75.5750   62.1800 C.ar  451  PHE451     -0.0000
@<TRIPOS>BOND
     1    84    83    2
     2    83    82    1
     3    75    74    2
     4    79    78   ar
     5    80    78   ar
     6    74    73    1
     7    74    81   am
     8    72    73    1
     9    73    76    1
    10    78    77    1
    11    82    81    1
    12    82    85    1
    13    86    85    1
    14    85    87    1
    15    77    76    1
    16    71    70    2
    17    70    69    1
    18    63    62    2
    19    50    48   ar
    20    50    51   ar
    21    48    46   ar
    22    62    61    1
    23    62    68   am
    24    51    49   ar
    25    60    61    1
    26    61    64    1
    27    69    68    1
    28    46    45    1
    29    46    47   ar
    30   109   108    1
    31    45    42    1
    32    49    47   ar
    33   107   106    2
    34    88    89    1
    35    64    66    1
    36    64    65    1
    37   108   105    1
    38    65    67    1
    39    42    43    1
    40    42    41    1
    41   106   105    1
    42    93    95    1
    43    93    92    1
    44    55    54    2
    45    43    44    2
    46    54    53    1
    47    89    92    1
    48    89    90    1
    49   105   104    1
    50    92    94    1
    51    90    91    2
    52    53    52    1
    53    53    56    1
    54   113   112    2
    55   119   117   ar
    56   119   120   ar
    57    56    57    1
    58   112   111    1
    59   117   115   ar
    60    11    10   ar
    61    11     9   ar
    62   120   118   ar
    63    10     8   ar
    64   103   101    1
    65   115   114    1
    66   115   116   ar
    67   111   110    1
    68   111   114    1
    69    57    59   am
    70    57    58    2
    71    29    27    1
    72     9     7   ar
    73   118   116   ar
    74     8     6   ar
    75    22    21   ar
    76    22    20   ar
    77   101   102    1
    78   101   100    1
    79    21    19   ar
    80    27    28    1
    81    27    24    1
    82    20    18   ar
    83     7     6   ar
    84    96    97    1
    85     6     5    1
    86   100    97    1
    87    23    24    1
    88    24    25    1
    89    97    98    1
    90    19    17   ar
    91    18    17   ar
    92    38    40   ar
    93    38    36   ar
    94    40    39   ar
    95     5     2    1
    96    17    16    1
    97     2     1    1
    98     2     3    1
    99    25    26    2
   100    25    30   am
   101    98    99    2
   102    36    35   ar
   103    39    37   ar
   104    30    31    1
   105     4     3    2
   106    35    37   ar
   107    35    34    1
   108    16    13    1
   109    12    13    1
   110    13    14    1
   111    31    34    1
   112    31    32    1
   113    32    33    2
   114    14    15    2
