@<TRIPOS>MOLECULE
tmp/2ff2B00.pdb
 178 171 0 0 0
SMALL
GASTEIGER

@<TRIPOS>ATOM
      1  N        -37.6980    9.3990  -50.1500 N.3    10  ASP10      -0.1239
      2  CA       -37.2040   10.4840  -49.3110 C.3    10  ASP10       0.1674
      3  C        -36.4350   10.0210  -48.0700 C.2    10  ASP10       0.2266
      4  O        -36.5720   10.5750  -46.9780 O.2    10  ASP10      -0.2867
      5  CB       -38.3260   11.4520  -48.9250 C.3    10  ASP10       0.1410
      6  CG       -39.3900   10.8200  -48.0630 C.2    10  ASP10       0.3668
      7  OD1      -40.2160   11.5890  -47.5390 O.co2  10  ASP10      -0.2456
      8  OD2      -39.4130    9.5810  -47.9170 O.co2  10  ASP10      -0.2456
      9  N        -36.1670    7.5720  -45.5030 N.3    12  ASN12      -0.1240
     10  CA       -36.3870    7.1910  -44.1180 C.3    12  ASN12       0.1653
     11  C        -36.1640    5.6720  -44.0550 C.2    12  ASN12       0.2266
     12  O        -35.8030    5.0490  -45.0730 O.2    12  ASN12      -0.2867
     13  CB       -37.7940    7.5470  -43.6450 C.3    12  ASN12       0.1155
     14  CG       -37.8190    7.8890  -42.1700 C.2    12  ASN12       0.2627
     15  OD1      -37.5670    9.0320  -41.7820 O.2    12  ASN12      -0.2716
     16  ND2      -38.0810    6.8940  -41.3370 N.am   12  ASN12      -0.0877
     17  N        -38.2750    3.0430  -43.8340 N.3    14  ASP14      -0.1225
     18  CA       -39.0830    2.2120  -44.7130 C.3    14  ASP14       0.1805
     19  C        -38.7500    2.4700  -46.1810 C.2    14  ASP14       0.2597
     20  O        -38.9150    1.5890  -47.0230 O.2    14  ASP14      -0.2718
     21  CB       -40.5910    2.3700  -44.4070 C.3    14  ASP14       0.1424
     22  CG       -41.1190    3.7790  -44.6410 C.2    14  ASP14       0.3668
     23  OD1      -40.3470    4.7540  -44.5250 O.co2  14  ASP14      -0.2456
     24  OD2      -42.3360    3.9060  -44.9240 O.co2  14  ASP14      -0.2456
     25  N        -38.2460    3.6630  -46.4780 N.am   15  ASP15      -0.1974
     26  CA       -37.8530    3.9950  -47.8480 C.3    15  ASP15       0.1709
     27  C        -36.7090    3.0670  -48.2370 C.2    15  ASP15       0.2293
     28  O        -36.6630    2.5510  -49.3600 O.2    15  ASP15      -0.2864
     29  CB       -37.3470    5.4430  -47.9440 C.3    15  ASP15       0.1436
     30  CG       -38.4440    6.4680  -47.7580 C.2    15  ASP15       0.3671
     31  OD1      -39.0790    6.8590  -48.7680 O.co2  15  ASP15      -0.2456
     32  OD2      -38.6610    6.8820  -46.5970 O.co2  15  ASP15      -0.2456
     33  N        -38.3960   13.5370  -45.8010 N.3    40  ASP40      -0.1239
     34  CA       -38.3020   12.7820  -44.5470 C.3    40  ASP40       0.1674
     35  C        -36.8550   12.4240  -44.1770 C.2    40  ASP40       0.2266
     36  O        -36.6040   11.4480  -43.4600 O.2    40  ASP40      -0.2867
     37  CB       -39.1560   11.5070  -44.6180 C.3    40  ASP40       0.1410
     38  CG       -39.6470   11.0360  -43.2400 C.2    40  ASP40       0.3668
     39  OD1      -39.4440   11.7400  -42.2240 O.co2  40  ASP40      -0.2456
     40  OD2      -40.2520    9.9480  -43.1760 O.co2  40  ASP40      -0.2456
     41  N        -41.2240   17.7830  -42.7880 N.3    79  PHE79      -0.1241
     42  CA       -41.3730   16.6690  -41.8580 C.3    79  PHE79       0.1605
     43  C        -40.7310   17.0570  -40.5330 C.2    79  PHE79       0.2264
     44  O        -39.8510   17.9130  -40.4970 O.2    79  PHE79      -0.2867
     45  CB       -40.6500   15.4130  -42.3630 C.3    79  PHE79       0.0534
     46  CG       -41.4630   14.5530  -43.2820 C.ar   79  PHE79      -0.0203
     47  CD1      -41.5620   14.8480  -44.6370 C.ar   79  PHE79      -0.0042
     48  CD2      -42.1190   13.4280  -42.7920 C.ar   79  PHE79      -0.0042
     49  CE1      -42.3030   14.0260  -45.4950 C.ar   79  PHE79      -0.0003
     50  CE2      -42.8600   12.6060  -43.6400 C.ar   79  PHE79      -0.0003
     51  CZ       -42.9520   12.9050  -44.9910 C.ar   79  PHE79      -0.0000
     52  N        -37.5870   13.0080  -37.3530 N.3    83  TRP83      -0.1241
     53  CA       -37.7660   11.9030  -38.3010 C.3    83  TRP83       0.1605
     54  C        -36.7080   11.9360  -39.4050 C.2    83  TRP83       0.2264
     55  O        -36.2320   10.8960  -39.8540 O.2    83  TRP83      -0.2867
     56  CB       -39.1700   11.9730  -38.9370 C.3    83  TRP83       0.0550
     57  CG       -40.3050   11.8380  -37.9510 C.ar   83  TRP83       0.0003
     58  CD1      -40.1980   11.6920  -36.5950 C.ar   83  TRP83       0.0946
     59  CD2      -41.7190   11.8350  -38.2440 C.ar   83  TRP83       0.0152
     60  NE1      -41.4490   11.6000  -36.0270 N.ar   83  TRP83      -0.2442
     61  CE2      -42.4000   11.6850  -37.0110 C.ar   83  TRP83       0.0810
     62  CE3      -42.4720   11.9460  -39.4250 C.ar   83  TRP83       0.0012
     63  CZ2      -43.8060   11.6430  -36.9210 C.ar   83  TRP83       0.0191
     64  CZ3      -43.8640   11.9070  -39.3410 C.ar   83  TRP83       0.0001
     65  CH2      -44.5220   11.7560  -38.0870 C.ar   83  TRP83       0.0015
     66  N        -32.9710   10.0420  -39.3020 N.3    86  LEU86      -0.1245
     67  CA       -32.7560    8.6230  -39.4970 C.3    86  LEU86       0.1561
     68  C        -31.7690    8.2570  -40.5850 C.2    86  LEU86       0.2260
     69  O        -30.9970    7.3290  -40.4040 O.2    86  LEU86      -0.2867
     70  CB       -34.1050    7.9210  -39.6840 C.3    86  LEU86       0.0270
     71  CG       -34.8720    7.9140  -38.3510 C.3    86  LEU86       0.0019
     72  CD1      -36.3200    7.5540  -38.5420 C.3    86  LEU86       0.0001
     73  CD2      -34.1870    6.9210  -37.4040 C.3    86  LEU86       0.0001
     74  N        -42.1580    6.5680  -52.7380 N.3   137  THR137     -0.1218
     75  CA       -42.2550    6.3200  -51.3120 C.3   137  THR137      0.1862
     76  C        -42.0460    7.6050  -50.5160 C.2   137  THR137      0.2287
     77  O        -42.0020    7.5920  -49.2880 O.2   137  THR137     -0.2866
     78  CB       -41.2380    5.2510  -50.9030 C.3   137  THR137      0.1770
     79  OG1      -39.9240    5.6660  -51.2960 O.3   137  THR137     -0.2211
     80  CG2      -41.5580    3.9460  -51.5970 C.3   137  THR137      0.0375
     81  N        -47.0130    5.4300  -52.2200 N.3   164  MET164     -0.1245
     82  CA       -47.2620    5.2990  -50.7980 C.3   164  MET164      0.1570
     83  C        -47.7370    6.6950  -50.4570 C.2   164  MET164      0.2261
     84  O        -46.9940    7.6620  -50.6350 O.2   164  MET164     -0.2867
     85  CB       -45.9890    4.9970  -50.0010 C.3   164  MET164      0.0387
     86  CG       -46.2400    4.7310  -48.4960 C.3   164  MET164      0.0595
     87  SD       -46.8650    6.1720  -47.5920 S.3   164  MET164     -0.1393
     88  CE       -48.3900    5.5370  -46.8830 C.3   164  MET164      0.0692
     89  N        -52.1490   10.6510  -40.5340 N.3   173  ASN173     -0.1240
     90  CA       -51.1250   10.6060  -39.5090 C.3   173  ASN173      0.1653
     91  C        -50.4530   11.9540  -39.3000 C.2   173  ASN173      0.2266
     92  O        -49.3650   12.0260  -38.7390 O.2   173  ASN173     -0.2867
     93  CB       -50.0800    9.5190  -39.8180 C.3   173  ASN173      0.1155
     94  CG       -49.4190    9.6800  -41.1870 C.2   173  ASN173      0.2627
     95  OD1      -49.5010   10.7340  -41.8330 O.2   173  ASN173     -0.2716
     96  ND2      -48.7450    8.6200  -41.6260 N.am  173  ASN173     -0.0877
     97  N        -52.3110   12.4800  -44.5900 N.3   184  GLU184     -0.1231
     98  CA       -51.1760   11.5740  -44.4440 C.3   184  GLU184      0.1699
     99  C        -49.9310   12.3970  -44.7970 C.2   184  GLU184      0.2592
    100  O        -49.9980   13.2740  -45.6530 O.2   184  GLU184     -0.2718
    101  CB       -51.3480   10.3550  -45.3610 C.3   184  GLU184      0.0402
    102  CG       -50.1650    9.3710  -45.3290 C.3   184  GLU184      0.1161
    103  CD       -49.0530    9.7980  -46.2680 C.2   184  GLU184      0.3649
    104  OE1      -47.8820    9.4270  -46.0430 O.co2 184  GLU184     -0.2457
    105  OE2      -49.3610   10.4990  -47.2470 O.co2 184  GLU184     -0.2457
    106  N        -48.8070   12.1110  -44.1430 N.am  185  TRP185     -0.1962
    107  CA       -47.5720   12.8780  -44.3290 C.3   185  TRP185      0.1771
    108  C        -46.9650   13.1170  -45.7270 C.2   185  TRP185      0.2619
    109  O        -46.5750   14.2430  -46.0310 O.2   185  TRP185     -0.2715
    110  CB       -46.4870   12.3370  -43.3880 C.3   185  TRP185      0.0590
    111  CG       -46.4650   13.0740  -42.0800 C.ar  185  TRP185      0.0006
    112  CD1      -46.9930   12.6610  -40.8840 C.ar  185  TRP185      0.0946
    113  CD2      -46.0120   14.4200  -41.8730 C.ar  185  TRP185      0.0152
    114  NE1      -46.9090   13.6720  -39.9500 N.ar  185  TRP185     -0.2442
    115  CE2      -46.3120   14.7630  -40.5280 C.ar  185  TRP185      0.0810
    116  CE3      -45.3890   15.3720  -42.6930 C.ar  185  TRP185      0.0012
    117  CZ2      -46.0090   16.0250  -39.9860 C.ar  185  TRP185      0.0191
    118  CZ3      -45.0890   16.6340  -42.1550 C.ar  185  TRP185      0.0001
    119  CH2      -45.4020   16.9460  -40.8130 C.ar  185  TRP185      0.0015
    120  N        -46.8680   12.0920  -46.5680 N.am  186  ASN186     -0.1972
    121  CA       -46.3000   12.2870  -47.9020 C.3   186  ASN186      0.1688
    122  C        -47.0930   13.2790  -48.7400 C.2   186  ASN186      0.2292
    123  O        -46.5190   14.0670  -49.4880 O.2   186  ASN186     -0.2864
    124  CB       -46.2100   10.9650  -48.6680 C.3   186  ASN186      0.1181
    125  CG       -45.1360   10.0790  -48.1390 C.2   186  ASN186      0.2629
    126  OD1      -44.3770   10.4790  -47.2560 O.2   186  ASN186     -0.2716
    127  ND2      -45.0450    8.8660  -48.6720 N.am  186  ASN186     -0.0877
    128  N        -41.6360    3.3450  -31.4480 N.3   248  CYS248     -0.1235
    129  CA       -42.5960    4.3910  -31.8060 C.3   248  CYS248      0.1677
    130  C        -43.9930    4.2940  -31.1970 C.2   248  CYS248      0.2270
    131  O        -44.4970    5.2700  -30.6430 O.2   248  CYS248     -0.2867
    132  CB       -42.6950    4.5080  -33.3330 C.3   248  CYS248      0.0956
    133  SG       -41.1580    5.0850  -34.1360 S.3   248  CYS248     -0.0801
    134  N        -45.5310    7.0500  -28.8650 N.3   252  ARG252     -0.1245
    135  CA       -46.7430    7.8000  -29.1770 C.3   252  ARG252      0.1563
    136  C        -47.9310    6.8640  -29.3050 C.2   252  ARG252      0.2260
    137  O        -48.2560    6.3810  -30.3940 O.2   252  ARG252     -0.2867
    138  CB       -46.5800    8.6340  -30.4540 C.3   252  ARG252      0.0307
    139  CG       -45.7300    8.0170  -31.5320 C.3   252  ARG252      0.0489
    140  CD       -45.5450    8.9920  -32.6910 C.3   252  ARG252      0.2205
    141  NE       -44.4000    8.6080  -33.5090 N.pl3 252  ARG252     -0.0865
    142  CZ       -44.4720    8.0880  -34.7300 C.cat 252  ARG252      0.5346
    143  NH1      -45.6430    7.8850  -35.3170 N.pl3 252  ARG252      0.1354
    144  NH2      -43.3600    7.7390  -35.3540 N.pl3 252  ARG252      0.1354
    145  N        -44.8740    3.0210  -35.8560 N.3   257  TYR257     -0.1241
    146  CA       -44.2280    3.0020  -37.1460 C.3   257  TYR257      0.1605
    147  C        -44.7950    1.8060  -37.9030 C.2   257  TYR257      0.2264
    148  O        -45.0620    0.7550  -37.3140 O.2   257  TYR257     -0.2867
    149  CB       -42.7090    2.8600  -36.9630 C.3   257  TYR257      0.0534
    150  CG       -41.8840    3.3240  -38.1430 C.ar  257  TYR257     -0.0201
    151  CD1      -41.2240    4.5550  -38.1180 C.ar  257  TYR257     -0.0009
    152  CD2      -41.7350    2.5150  -39.2760 C.ar  257  TYR257     -0.0009
    153  CE1      -40.4210    4.9690  -39.1960 C.ar  257  TYR257      0.0417
    154  CE2      -40.9400    2.9190  -40.3590 C.ar  257  TYR257      0.0417
    155  CZ       -40.2850    4.1410  -40.3140 C.ar  257  TYR257      0.1957
    156  OH       -39.4890    4.5240  -41.3800 O.3   257  TYR257     -0.2866
    157  N        -44.8800    1.1950  -44.2450 N.3   260  TRP260     -0.1227
    158  CA       -45.5320    1.9280  -45.3240 C.3   260  TRP260      0.1737
    159  C        -44.8850    1.7450  -46.6990 C.2   260  TRP260      0.2595
    160  O        -45.4670    1.1450  -47.5990 O.2   260  TRP260     -0.2718
    161  CB       -45.5470    3.4280  -45.0230 C.3   260  TRP260      0.0564
    162  CG       -46.1010    3.8520  -43.7010 C.ar  260  TRP260      0.0003
    163  CD1      -47.4150    3.9060  -43.3400 C.ar  260  TRP260      0.0946
    164  CD2      -45.3570    4.3760  -42.5930 C.ar  260  TRP260      0.0152
    165  NE1      -47.5400    4.4410  -42.0790 N.ar  260  TRP260     -0.2442
    166  CE2      -46.2930    4.7370  -41.5950 C.ar  260  TRP260      0.0810
    167  CE3      -43.9890    4.5780  -42.3470 C.ar  260  TRP260      0.0012
    168  CZ2      -45.9090    5.2910  -40.3630 C.ar  260  TRP260      0.0191
    169  CZ3      -43.5990    5.1310  -41.1190 C.ar  260  TRP260      0.0001
    170  CH2      -44.5630    5.4790  -40.1420 C.ar  260  TRP260      0.0015
    171  N        -43.6820    2.2890  -46.8590 N.am  261  ASP261     -0.1974
    172  CA       -42.9720    2.2210  -48.1340 C.3   261  ASP261      0.1709
    173  C        -42.5890    0.8070  -48.5360 C.2   261  ASP261      0.2293
    174  O        -42.4640    0.4990  -49.7260 O.2   261  ASP261     -0.2864
    175  CB       -41.7140    3.0960  -48.0900 C.3   261  ASP261      0.1436
    176  CG       -42.0300    4.5470  -47.7950 C.2   261  ASP261      0.3671
    177  OD1      -43.2160    4.9180  -47.8870 O.co2 261  ASP261     -0.2456
    178  OD2      -41.0970    5.3200  -47.4760 O.co2 261  ASP261     -0.2456
@<TRIPOS>BOND
     1    74    75    1
     2    81    82    1
     3    80    78    1
     4    75    78    1
     5    75    76    1
     6    79    78    1
     7    82    83    1
     8    82    85    1
     9    84    83    2
    10    76    77    2
    11     1     2    1
    12    85    86    1
    13   174   173    2
    14   123   122    2
    15    28    27    2
    16     2     5    1
    17     2     3    1
    18     5     6    1
    19    31    30   ar
    20   122   121    1
    21   127   125   am
    22   124   125    1
    23   124   121    1
    24   173   172    1
    25    86    87    1
    26    27    26    1
    27   125   126    2
    28   172   175    1
    29   172   171    1
    30   175   176    1
    31     3     4    2
    32     6     8   ar
    33     6     7   ar
    34    29    26    1
    35    29    30    1
    36   121   120    1
    37   177   176   ar
    38    26    25    1
    39   176   178   ar
    40    30    32   ar
    41   160   159    2
    42    87    88    1
    43   105   103   ar
    44    20    19    2
    45   171   159   am
    46   159   158    1
    47   120   108   am
    48    25    19   am
    49   103   104   ar
    50   103   102    1
    51    19    18    1
    52   109   108    2
    53    33    34    1
    54   108   107    1
    55   100    99    2
    56     9    10    1
    57    49    51   ar
    58    49    47   ar
    59   101   102    1
    60   101    98    1
    61   158   161    1
    62   158   157    1
    63    12    11    2
    64   161   162    1
    65    51    50   ar
    66    24    22   ar
    67    99    98    1
    68    99   106   am
    69    18    21    1
    70    18    17    1
    71    22    23   ar
    72    22    21    1
    73    47    46   ar
    74    37    34    1
    75    37    38    1
    76    97    98    1
    77    34    35    1
    78   107   106    1
    79   107   110    1
    80    35    36    2
    81    10    11    1
    82    10    13    1
    83   162   163   ar
    84   162   164   ar
    85    13    14    1
    86    50    48   ar
    87   110   111    1
    88   163   165   ar
    89    46    48   ar
    90    46    45    1
    91    38    40   ar
    92    38    39   ar
    93    41    42    1
    94   116   118   ar
    95   116   113   ar
    96   164   167   ar
    97   164   166   ar
    98    45    42    1
    99   167   169   ar
   100    14    15    2
   101    14    16   am
   102   118   119   ar
   103   111   113   ar
   104   111   112   ar
   105   165   166   ar
   106   113   115   ar
   107    42    43    1
   108    95    94    2
   109    96    94   am
   110   166   168   ar
   111   156   155    1
   112    94    93    1
   113   169   170   ar
   114   112   114   ar
   115   119   117   ar
   116    68    69    2
   117    68    67    1
   118    89    90    1
   119    43    44    2
   120   115   117   ar
   121   115   114   ar
   122   168   170   ar
   123   154   155   ar
   124   154   152   ar
   125   155   153   ar
   126    55    54    2
   127    93    90    1
   128    70    67    1
   129    70    71    1
   130    90    91    1
   131    67    66    1
   132    62    64   ar
   133    62    59   ar
   134    54    53    1
   135    64    65   ar
   136    91    92    2
   137   152   150   ar
   138   153   151   ar
   139    56    53    1
   140    56    57    1
   141    72    71    1
   142    71    73    1
   143    53    52    1
   144    59    57   ar
   145    59    61   ar
   146   150   151   ar
   147   150   149    1
   148    65    63   ar
   149    57    58   ar
   150   147   148    2
   151   147   146    1
   152   146   149    1
   153   146   145    1
   154    61    63   ar
   155    61    60   ar
   156    58    60   ar
   157   144   142    1
   158   143   142    1
   159   142   141    2
   160   133   132    1
   161   141   140    1
   162   132   129    1
   163   140   139    1
   164   129   128    1
   165   129   130    1
   166   139   138    1
   167   130   131    2
   168   138   135    1
   169   137   136    2
   170   136   135    1
   171   135   134    1
