@<TRIPOS>MOLECULE
tmp/2ff4A00.pdb
 124 120 0 0 0
SMALL
GASTEIGER

@<TRIPOS>ATOM
      1  N        -33.0930  -10.3210  -12.8290 N.3    55  GLU55      -0.1245
      2  CA       -34.0060  -10.7720  -13.8730 C.3    55  GLU55       0.1567
      3  C        -34.0760  -12.3000  -14.0940 C.2    55  GLU55       0.2260
      4  O        -35.0480  -12.7950  -14.6730 O.2    55  GLU55      -0.2867
      5  CB       -33.6490  -10.0520  -15.1850 C.3    55  GLU55       0.0388
      6  CG       -34.7860   -9.9960  -16.1920 C.3    55  GLU55       0.1160
      7  CD       -34.5400   -8.9920  -17.3110 C.2    55  GLU55       0.3649
      8  OE1      -33.4330   -8.4030  -17.3720 O.co2  55  GLU55      -0.2457
      9  OE2      -35.4660   -8.7920  -18.1340 O.co2  55  GLU55      -0.2457
     10  N        -42.9820   -0.0750  -12.8870 N.3   305  ARG305     -0.1231
     11  CA       -44.1630   -0.7730  -13.3930 C.3   305  ARG305      0.1694
     12  C        -44.1830   -2.2740  -13.0750 C.2   305  ARG305      0.2592
     13  O        -45.2570   -2.8350  -12.8330 O.2   305  ARG305     -0.2718
     14  CB       -44.3480   -0.5110  -14.8940 C.3   305  ARG305      0.0321
     15  CG       -45.5180   -1.2560  -15.5420 C.3   305  ARG305      0.0489
     16  CD       -45.9000   -0.6680  -16.9080 C.3   305  ARG305      0.2205
     17  NE       -44.7350   -0.2600  -17.6920 N.pl3 305  ARG305     -0.0865
     18  CZ       -43.9970   -1.0810  -18.4360 C.cat 305  ARG305      0.5346
     19  NH1      -44.2980   -2.3780  -18.5190 N.pl3 305  ARG305      0.1354
     20  NH2      -42.9530   -0.6020  -19.1040 N.pl3 305  ARG305      0.1354
     21  N        -43.0140   -2.9170  -13.0720 N.am  306  LEU306     -0.1966
     22  CA       -42.9210   -4.3540  -12.7670 C.3   306  LEU306      0.1728
     23  C        -43.3820   -4.7210  -11.3490 C.2   306  LEU306      0.2616
     24  O        -43.1550   -3.9770  -10.3880 O.2   306  LEU306     -0.2715
     25  CB       -41.5050   -4.8990  -13.0180 C.3   306  LEU306      0.0311
     26  CG       -41.2210   -5.8160  -14.2210 C.3   306  LEU306      0.0022
     27  CD1      -39.9470   -6.6000  -13.9740 C.3   306  LEU306      0.0001
     28  CD2      -42.3540   -6.8050  -14.4840 C.3   306  LEU306      0.0001
     29  N        -44.0260   -5.8830  -11.2470 N.am  307  HIS307     -0.1973
     30  CA       -44.6130   -6.4020  -10.0060 C.3   307  HIS307      0.1656
     31  C        -43.6220   -6.5650   -8.8400 C.2   307  HIS307      0.2291
     32  O        -44.0310   -6.5660   -7.6790 O.2   307  HIS307     -0.2864
     33  CB       -45.2680   -7.7600  -10.2890 C.3   307  HIS307      0.0771
     34  CG       -44.2750   -8.8500  -10.5520 C.ar  307  HIS307      0.0820
     35  ND1      -43.6480   -9.0060  -11.7710 N.ar  307  HIS307     -0.2267
     36  CD2      -43.7680   -9.8100   -9.7420 C.ar  307  HIS307      0.1154
     37  CE1      -42.8100  -10.0260  -11.7050 C.ar  307  HIS307      0.1986
     38  NE2      -42.8630  -10.5290  -10.4840 N.ar  307  HIS307     -0.2212
     39  N        -48.4890    2.7380  -18.4560 N.3   316  ALA316     -0.1231
     40  CA       -47.6890    2.2630  -19.5880 C.3   316  ALA316      0.1694
     41  C        -46.3880    3.0450  -19.7760 C.2   316  ALA316      0.2592
     42  O        -45.3730    2.4770  -20.1920 O.2   316  ALA316     -0.2718
     43  CB       -48.5240    2.2900  -20.8730 C.3   316  ALA316      0.0304
     44  N        -46.4170    4.3360  -19.4480 N.am  317  ASN317     -0.1960
     45  CA       -45.2590    5.2150  -19.6330 C.3   317  ASN317      0.1819
     46  C        -44.2100    5.1490  -18.5170 C.2   317  ASN317      0.2621
     47  O        -43.1290    5.7310  -18.6390 O.2   317  ASN317     -0.2715
     48  CB       -45.6970    6.6670  -19.8990 C.3   317  ASN317      0.1195
     49  CG       -46.6960    7.1890  -18.8740 C.2   317  ASN317      0.2630
     50  OD1      -47.0630    6.4970  -17.9250 O.2   317  ASN317     -0.2716
     51  ND2      -47.1350    8.4280  -19.0660 N.am  317  ASN317     -0.0877
     52  N        -44.5290    4.4340  -17.4420 N.am  318  VAL318     -0.1963
     53  CA       -43.5810    4.2220  -16.3410 C.3   318  VAL318      0.1727
     54  C        -42.6540    3.0540  -16.7010 C.2   318  VAL318      0.2617
     55  O        -43.1170    2.0130  -17.1720 O.2   318  VAL318     -0.2715
     56  CB       -44.3200    3.9450  -15.0000 C.3   318  VAL318      0.0290
     57  CG1      -43.3350    3.6630  -13.8750 C.3   318  VAL318      0.0023
     58  CG2      -45.2340    5.1130  -14.6260 C.3   318  VAL318      0.0023
     59  N        -41.3490    3.2340  -16.4910 N.am  319  SER319     -0.1936
     60  CA       -40.3690    2.1910  -16.7910 C.3   319  SER319      0.2055
     61  C        -40.5200    0.9900  -15.8550 C.2   319  SER319      0.2643
     62  O        -40.9260    1.1470  -14.6990 O.2   319  SER319     -0.2714
     63  CB       -38.9450    2.7550  -16.7260 C.3   319  SER319      0.2130
     64  OG       -38.7210    3.6920  -17.7670 O.3   319  SER319     -0.2179
     65  N        -40.2040   -0.2030  -16.3670 N.am  320  ARG320     -0.1963
     66  CA       -40.2500   -1.4460  -15.5810 C.3   320  ARG320      0.1729
     67  C        -39.6080   -1.2880  -14.2030 C.2   320  ARG320      0.2616
     68  O        -40.1880   -1.6800  -13.1890 O.2   320  ARG320     -0.2715
     69  CB       -39.6030   -2.6060  -16.3510 C.3   320  ARG320      0.0348
     70  CG       -40.5720   -3.3170  -17.2870 C.3   320  ARG320      0.0492
     71  CD       -39.8580   -4.1460  -18.3540 C.3   320  ARG320      0.2205
     72  NE       -39.1680   -3.3000  -19.3310 N.pl3 320  ARG320     -0.0865
     73  CZ       -37.8640   -3.3530  -19.5870 C.cat 320  ARG320      0.5346
     74  NH1      -37.0880   -4.2310  -18.9560 N.pl3 320  ARG320      0.1354
     75  NH2      -37.3350   -2.5350  -20.4910 N.pl3 320  ARG320      0.1354
     76  N        -38.4030   -0.7250  -14.1890 N.am  321  HIS321     -0.1973
     77  CA       -37.7480   -0.2730  -12.9720 C.3   321  HIS321      0.1656
     78  C        -37.3380    1.1720  -13.2140 C.2   321  HIS321      0.2291
     79  O        -36.3780    1.4510  -13.9380 O.2   321  HIS321     -0.2864
     80  CB       -36.5530   -1.1590  -12.6260 C.3   321  HIS321      0.0771
     81  CG       -36.9120   -2.6020  -12.4740 C.ar  321  HIS321      0.0820
     82  ND1      -36.6700   -3.5340  -13.4590 N.ar  321  HIS321     -0.2267
     83  CD2      -37.5370   -3.2640  -11.4730 C.ar  321  HIS321      0.1154
     84  CE1      -37.1140   -4.7130  -13.0640 C.ar  321  HIS321      0.1986
     85  NE2      -37.6440   -4.5770  -11.8620 N.ar  321  HIS321     -0.2212
     86  N        -37.0850    6.0660  -19.3230 N.3   340  SER340     -0.1202
     87  CA       -37.4830    6.6930  -20.5750 C.3   340  SER340      0.2020
     88  C        -37.9480    8.1330  -20.3620 C.2   340  SER340      0.2618
     89  O        -37.5470    9.0420  -21.0970 O.2   340  SER340     -0.2717
     90  CB       -38.5910    5.8740  -21.2340 C.3   340  SER340      0.2103
     91  OG       -38.1200    4.5940  -21.6250 O.3   340  SER340     -0.2182
     92  N        -38.7680    8.3430  -19.3350 N.am  341  ASN341     -0.1974
     93  CA       -39.4240    9.6370  -19.1540 C.3   341  ASN341      0.1688
     94  C        -38.8360   10.5250  -18.0640 C.2   341  ASN341      0.2292
     95  O        -39.1150   11.7270  -18.0210 O.2   341  ASN341     -0.2864
     96  CB       -40.9430    9.4570  -19.0160 C.3   341  ASN341      0.1181
     97  CG       -41.5860    8.9380  -20.3050 C.2   341  ASN341      0.2629
     98  OD1      -41.2960    9.4260  -21.4040 O.2   341  ASN341     -0.2716
     99  ND2      -42.4600    7.9410  -20.1740 N.am  341  ASN341     -0.0877
    100  N        -42.6430   13.6170   -9.0530 N.3   363  ARG363     -0.1245
    101  CA       -43.4580   13.2080  -10.1820 C.3   363  ARG363      0.1563
    102  C        -42.7690   12.1100  -10.9910 C.2   363  ARG363      0.2260
    103  O        -41.6210   12.2610  -11.4190 O.2   363  ARG363     -0.2867
    104  CB       -43.8010   14.4150  -11.0660 C.3   363  ARG363      0.0307
    105  CG       -44.7570   14.0990  -12.1940 C.3   363  ARG363      0.0489
    106  CD       -44.9370   15.2750  -13.1490 C.3   363  ARG363      0.2205
    107  NE       -44.9040   14.7950  -14.5240 N.pl3 363  ARG363     -0.0865
    108  CZ       -44.0120   15.1570  -15.4410 C.cat 363  ARG363      0.5346
    109  NH1      -43.0830   16.0620  -15.1690 N.pl3 363  ARG363      0.1354
    110  NH2      -44.0810   14.6300  -16.6540 N.pl3 363  ARG363      0.1354
    111  N        -43.9140   10.3420  -14.2940 N.3   365  CYS365     -0.1221
    112  CA       -44.8850   10.4520  -15.3830 C.3   365  CYS365      0.1808
    113  C        -46.1360   11.1900  -14.9060 C.2   365  CYS365      0.2601
    114  O        -46.0610   12.3750  -14.5710 O.2   365  CYS365     -0.2717
    115  CB       -45.2070    9.0740  -15.9800 C.3   365  CYS365      0.0970
    116  SG       -43.7620    8.2130  -16.6260 S.3   365  CYS365     -0.0800
    117  N        -47.2690   10.4970  -14.8440 N.am  366  ASP366     -0.1973
    118  CA       -48.5170   11.1280  -14.4060 C.3   366  ASP366      0.1709
    119  C        -48.7850   10.9420  -12.9040 C.2   366  ASP366      0.2293
    120  O        -49.7370   11.5090  -12.3630 O.2   366  ASP366     -0.2864
    121  CB       -49.6970   10.6220  -15.2470 C.3   366  ASP366      0.1436
    122  CG       -49.5200   10.9060  -16.7380 C.2   366  ASP366      0.3671
    123  OD1      -48.9950   11.9860  -17.0920 O.co2 366  ASP366     -0.2456
    124  OD2      -49.9110   10.0490  -17.5600 O.co2 366  ASP366     -0.2456
@<TRIPOS>BOND
     1    91    90    1
     2    98    97    2
     3    90    87    1
     4    89    88    2
     5    43    40    1
     6    87    88    1
     7    87    86    1
     8    75    73    1
     9    88    92   am
    10    97    99   am
    11    97    96    1
    12    42    41    2
    13    48    45    1
    14    48    49    1
    15    41    40    1
    16    41    44   am
    17    45    44    1
    18    45    46    1
    19    40    39    1
    20    73    72    2
    21    73    74    1
    22    92    93    1
    23    72    71    1
    24    93    96    1
    25    93    94    1
    26    20    18    1
    27    51    49   am
    28    49    50    2
    29    47    46    2
    30    19    18    1
    31    46    52   am
    32    18    17    2
    33    71    70    1
    34     9     7   ar
    35    94    95    2
    36    64    63    1
    37    17    16    1
    38   124   122   ar
    39    52    53    1
    40     8     7   ar
    41     7     6    1
    42    70    69    1
    43    55    54    2
    44   123   122   ar
    45    16    15    1
    46    60    63    1
    47    60    59    1
    48    60    61    1
    49   122   121    1
    50    54    59   am
    51    54    53    1
    52   110   108    1
    53   116   115    1
    54    65    61   am
    55    65    66    1
    56    69    66    1
    57    53    56    1
    58     6     5    1
    59   115   112    1
    60    61    62    2
    61    66    67    1
    62    15    14    1
    63   108   109    1
    64   108   107    2
    65   112   113    1
    66   112   111    1
    67   121   118    1
    68     5     2    1
    69    56    58    1
    70    56    57    1
    71   113   117   am
    72   113   114    2
    73    14    11    1
    74   117   118    1
    75     4     3    2
    76   107   106    1
    77    28    26    1
    78   118   119    1
    79    26    27    1
    80    26    25    1
    81    67    76   am
    82    67    68    2
    83    76    77    1
    84     3     2    1
    85    79    78    2
    86     2     1    1
    87    82    84   ar
    88    82    81   ar
    89    11    12    1
    90    11    10    1
    91    78    77    1
    92   106   105    1
    93    12    21   am
    94    12    13    2
    95    21    22    1
    96    84    85   ar
    97    25    22    1
    98    77    80    1
    99   119   120    2
   100    22    23    1
   101    80    81    1
   102    81    83   ar
   103   105   104    1
   104    85    83   ar
   105    35    37   ar
   106    35    34   ar
   107    37    38   ar
   108   103   102    2
   109    23    29   am
   110    23    24    2
   111    29    30    1
   112   104   101    1
   113   102   101    1
   114    34    33    1
   115    34    36   ar
   116    38    36   ar
   117    33    30    1
   118   101   100    1
   119    30    31    1
   120    31    32    2
