@<TRIPOS>MOLECULE
tmp/2ff4B00.pdb
 95 89 0 0 0
SMALL
GASTEIGER

@<TRIPOS>ATOM
      1  N        -34.9280    1.3740  -31.3060 N.3   305  ARG305     -0.1245
      2  CA       -35.9360    2.1110  -32.0600 C.3   305  ARG305      0.1563
      3  C        -35.6790    3.6150  -32.0540 C.2   305  ARG305      0.2260
      4  O        -36.0020    4.3060  -33.0290 O.2   305  ARG305     -0.2867
      5  CB       -37.3490    1.7960  -31.5590 C.3   305  ARG305      0.0307
      6  CG       -38.4640    2.4580  -32.3800 C.3   305  ARG305      0.0489
      7  CD       -39.8330    1.8450  -32.0990 C.3   305  ARG305      0.2205
      8  NE       -39.9900    1.5010  -30.6870 N.pl3 305  ARG305     -0.0865
      9  CZ       -40.3830    2.3490  -29.7420 C.cat 305  ARG305      0.5346
     10  NH1      -40.6800    3.6060  -30.0480 N.pl3 305  ARG305      0.1354
     11  NH2      -40.4800    1.9370  -28.4850 N.pl3 305  ARG305      0.1354
     12  N        -37.1280    0.4390  -36.5980 N.3   314  ASP314     -0.1239
     13  CA       -38.3830    1.1290  -36.2950 C.3   314  ASP314      0.1674
     14  C        -39.5640    0.1670  -36.1730 C.2   314  ASP314      0.2266
     15  O        -40.4450    0.1120  -37.0370 O.2   314  ASP314     -0.2867
     16  CB       -38.6650    2.2300  -37.3230 C.3   314  ASP314      0.1410
     17  CG       -39.7880    3.1630  -36.8920 C.2   314  ASP314      0.3668
     18  OD1      -40.3670    3.8320  -37.7730 O.co2 314  ASP314     -0.2456
     19  OD2      -40.0950    3.2260  -35.6760 O.co2 314  ASP314     -0.2456
     20  N        -42.4450   -1.3030  -33.2370 N.3   316  ALA316     -0.1231
     21  CA       -43.0890   -1.0270  -31.9570 C.3   316  ALA316      0.1694
     22  C        -42.6080   -1.9130  -30.8100 C.2   316  ALA316      0.2592
     23  O        -42.5090   -1.4490  -29.6790 O.2   316  ALA316     -0.2718
     24  CB       -44.6040   -1.1020  -32.1020 C.3   316  ALA316      0.0304
     25  N        -42.2890   -3.1740  -31.1010 N.am  317  ASN317     -0.1960
     26  CA       -41.8220   -4.1070  -30.0690 C.3   317  ASN317      0.1819
     27  C        -40.3300   -4.0120  -29.7060 C.2   317  ASN317      0.2621
     28  O        -39.8650   -4.6770  -28.7730 O.2   317  ASN317     -0.2715
     29  CB       -42.2150   -5.5560  -30.4100 C.3   317  ASN317      0.1195
     30  CG       -41.6870   -6.0200  -31.7630 C.2   317  ASN317      0.2630
     31  OD1      -41.0090   -5.2780  -32.4800 O.2   317  ASN317     -0.2716
     32  ND2      -42.0040   -7.2630  -32.1170 N.am  317  ASN317     -0.0877
     33  N        -39.5930   -3.1800  -30.4390 N.am  318  VAL318     -0.1963
     34  CA       -38.1680   -2.9510  -30.1710 C.3   318  VAL318      0.1727
     35  C        -37.9980   -1.8260  -29.1450 C.2   318  VAL318      0.2617
     36  O        -38.5800   -0.7460  -29.2960 O.2   318  VAL318     -0.2715
     37  CB       -37.3820   -2.6360  -31.4780 C.3   318  VAL318      0.0290
     38  CG1      -35.9170   -2.3150  -31.1850 C.3   318  VAL318      0.0023
     39  CG2      -37.4740   -3.8050  -32.4440 C.3   318  VAL318      0.0023
     40  N        -37.2220   -2.1020  -28.0950 N.am  319  SER319     -0.1936
     41  CA       -36.9120   -1.1140  -27.0610 C.3   319  SER319      0.2055
     42  C        -36.1400    0.0700  -27.6370 C.2   319  SER319      0.2642
     43  O        -35.3330   -0.0920  -28.5550 O.2   319  SER319     -0.2714
     44  CB       -36.1360   -1.7500  -25.9020 C.3   319  SER319      0.2130
     45  OG       -36.9600   -2.6410  -25.1660 O.3   319  SER319     -0.2179
     46  N        -36.4010    1.2620  -27.1010 N.am  320  ARG320     -0.1977
     47  CA       -35.8120    2.4970  -27.6270 C.3   320  ARG320      0.1597
     48  C        -34.2790    2.4440  -27.6040 C.2   320  ARG320      0.2287
     49  O        -33.6280    2.8870  -28.5470 O.2   320  ARG320     -0.2864
     50  CB       -36.4050    3.7380  -26.9310 C.3   320  ARG320      0.0334
     51  CG       -37.8620    4.0170  -27.3700 C.3   320  ARG320      0.0492
     52  CD       -38.4040    5.3930  -26.9280 C.3   320  ARG320      0.2205
     53  NE       -39.1090    5.4560  -25.6340 N.pl3 320  ARG320     -0.0865
     54  CZ       -39.6100    4.4240  -24.9450 C.cat 320  ARG320      0.5346
     55  NH1      -39.5120    3.1820  -25.3940 N.pl3 320  ARG320      0.1354
     56  NH2      -40.2280    4.6390  -23.7890 N.pl3 320  ARG320      0.1354
     57  N        -37.2750   -5.0760  -23.0970 N.3   340  SER340     -0.1202
     58  CA       -38.5160   -5.7680  -22.7550 C.3   340  SER340      0.2020
     59  C        -38.5580   -7.1680  -23.3700 C.2   340  SER340      0.2618
     60  O        -38.8660   -8.1500  -22.6860 O.2   340  SER340     -0.2717
     61  CB       -39.7310   -4.9620  -23.2220 C.3   340  SER340      0.2103
     62  OG       -39.5520   -3.5720  -23.0000 O.3   340  SER340     -0.2182
     63  N        -38.2210   -7.2510  -24.6570 N.am  341  ASN341     -0.1974
     64  CA       -38.3850   -8.4930  -25.4170 C.3   341  ASN341      0.1688
     65  C        -37.1130   -9.3270  -25.5950 C.2   341  ASN341      0.2292
     66  O        -37.1760  -10.4970  -25.9990 O.2   341  ASN341     -0.2864
     67  CB       -39.0790   -8.2030  -26.7490 C.3   341  ASN341      0.1181
     68  CG       -40.5290   -7.8030  -26.5610 C.2   341  ASN341      0.2629
     69  OD1      -41.3040   -8.5230  -25.9240 O.2   341  ASN341     -0.2716
     70  ND2      -40.9020   -6.6490  -27.1000 N.am  341  ASN341     -0.0877
     71  N        -31.2280  -12.2990  -33.4000 N.3   363  ARG363     -0.1245
     72  CA       -32.6230  -11.8870  -33.4880 C.3   363  ARG363      0.1563
     73  C        -32.9240  -10.7860  -32.4670 C.2   363  ARG363      0.2260
     74  O        -32.6280  -10.9300  -31.2770 O.2   363  ARG363     -0.2867
     75  CB       -33.5560  -13.0870  -33.2800 C.3   363  ARG363      0.0307
     76  CG       -35.0370  -12.7310  -33.2700 C.3   363  ARG363      0.0489
     77  CD       -35.9240  -13.9420  -33.0640 C.3   363  ARG363      0.2205
     78  NE       -36.9420  -13.6850  -32.0450 N.pl3 363  ARG363     -0.0865
     79  CZ       -37.1330  -14.4370  -30.9620 C.cat 363  ARG363      0.5346
     80  NH1      -36.3990  -15.5260  -30.7540 N.pl3 363  ARG363      0.1354
     81  NH2      -38.0790  -14.1140  -30.0920 N.pl3 363  ARG363      0.1354
     82  N        -36.3900   -9.0520  -31.7920 N.3   365  CYS365     -0.1221
     83  CA       -37.8190   -9.1440  -32.0990 C.3   365  CYS365      0.1808
     84  C        -38.0740   -9.8010  -33.4640 C.2   365  CYS365      0.2601
     85  O        -37.7860  -10.9850  -33.6350 O.2   365  CYS365     -0.2717
     86  CB       -38.5070   -7.7790  -31.9490 C.3   365  CYS365      0.0970
     87  SG       -38.2360   -7.0290  -30.3260 S.3   365  CYS365     -0.0800
     88  N        -38.5980   -9.0430  -34.4270 N.am  366  ASP366     -0.1973
     89  CA       -38.8860   -9.5860  -35.7570 C.3   366  ASP366      0.1709
     90  C        -37.7450   -9.3620  -36.7530 C.2   366  ASP366      0.2293
     91  O        -37.8450   -9.7370  -37.9250 O.2   366  ASP366     -0.2864
     92  CB       -40.2080   -9.0230  -36.2920 C.3   366  ASP366      0.1436
     93  CG       -41.3990   -9.3970  -35.4160 C.2   366  ASP366      0.3671
     94  OD1      -41.3480  -10.4510  -34.7390 O.co2 366  ASP366     -0.2456
     95  OD2      -42.3890   -8.6390  -35.4080 O.co2 366  ASP366     -0.2456
@<TRIPOS>BOND
     1    91    90    2
     2    18    17   ar
     3    16    17    1
     4    16    13    1
     5    15    14    2
     6    17    19   ar
     7    90    89    1
     8    12    13    1
     9    13    14    1
    10    92    89    1
    11    92    93    1
    12    89    88    1
    13    93    95   ar
    14    93    94   ar
    15    88    84   am
    16    85    84    2
    17    72    71    1
    18    72    75    1
    19    72    73    1
    20    84    83    1
    21    75    76    1
    22    76    77    1
    23    20    21    1
    24    77    78    1
    25     4     3    2
    26    31    30    2
    27    73    74    2
    28    39    37    1
    29     6     7    1
    30     6     5    1
    31    32    30   am
    32    24    21    1
    33     7     8    1
    34    83    86    1
    35    83    82    1
    36     2     3    1
    37     2     5    1
    38     2     1    1
    39    78    79    2
    40    21    22    1
    41    86    87    1
    42    30    29    1
    43    37    38    1
    44    37    34    1
    45    25    22   am
    46    25    26    1
    47    79    80    1
    48    79    81    1
    49    22    23    2
    50     8     9    2
    51    33    34    1
    52    33    27   am
    53    29    26    1
    54    34    35    1
    55    26    27    1
    56    10     9    1
    57     9    11    1
    58    27    28    2
    59    36    35    2
    60    35    40   am
    61    43    42    2
    62    49    48    2
    63    40    41    1
    64    42    46   am
    65    42    41    1
    66    47    48    1
    67    47    46    1
    68    47    50    1
    69    51    50    1
    70    51    52    1
    71    70    68   am
    72    41    44    1
    73    52    53    1
    74    67    68    1
    75    67    64    1
    76    68    69    2
    77    66    65    2
    78    44    45    1
    79    53    54    2
    80    65    64    1
    81    64    63    1
    82    55    54    1
    83    54    56    1
    84    63    59   am
    85    59    58    1
    86    59    60    2
    87    61    62    1
    88    61    58    1
    89    57    58    1
