@<TRIPOS>MOLECULE
tmp/2ff5A01.pdb
 160 151 0 0 0
SMALL
GASTEIGER

@<TRIPOS>ATOM
      1  N         32.8350   20.1190   39.1420 N.3    77  GLU77      -0.1245
      2  CA        31.5080   20.5780   38.7620 C.3    77  GLU77       0.1567
      3  C         30.5440   19.4510   38.4200 C.2    77  GLU77       0.2260
      4  O         30.8970   18.5040   37.7180 O.2    77  GLU77      -0.2867
      5  CB        31.5850   21.5180   37.5530 C.3    77  GLU77       0.0388
      6  CG        32.4480   22.7460   37.7710 C.3    77  GLU77       0.1160
      7  CD        32.3130   23.7570   36.6530 C.2    77  GLU77       0.3649
      8  OE1       33.1040   24.7180   36.6370 O.co2  77  GLU77      -0.2457
      9  OE2       31.4170   23.6020   35.7930 O.co2  77  GLU77      -0.2457
     10  N         28.8390   23.5480   30.0460 N.3   124  GLY124     -0.1210
     11  CA        29.0310   22.2560   29.4140 C.3   124  GLY124      0.1956
     12  C         29.7920   21.1930   30.1730 C.2   124  GLY124      0.2611
     13  O         29.3520   20.0420   30.2530 O.2   124  GLY124     -0.2717
     14  N         30.9420   21.5610   30.7200 N.am  125  LEU125     -0.1979
     15  CA        31.7480   20.6070   31.4590 C.3   125  LEU125      0.1596
     16  C         31.0020   20.0860   32.6850 C.2   125  LEU125      0.2287
     17  O         31.0280   18.8880   32.9630 O.2   125  LEU125     -0.2864
     18  CB        33.0730   21.2540   31.8640 C.3   125  LEU125      0.0297
     19  CG        34.0210   20.4370   32.7420 C.3   125  LEU125      0.0022
     20  CD1       35.4470   20.9390   32.5470 C.3   125  LEU125      0.0001
     21  CD2       33.5960   20.5490   34.1980 C.3   125  LEU125      0.0001
     22  N         28.0590   17.9570   31.5500 N.3   128  LEU128     -0.1245
     23  CA        28.5250   16.6910   30.9820 C.3   128  LEU128      0.1561
     24  C         28.6660   15.6720   32.1080 C.2   128  LEU128      0.2260
     25  O         28.2790   14.5090   31.9650 O.2   128  LEU128     -0.2867
     26  CB        29.8780   16.8560   30.2860 C.3   128  LEU128      0.0270
     27  CG        30.3800   15.5880   29.5750 C.3   128  LEU128      0.0019
     28  CD1       29.5490   15.3200   28.3280 C.3   128  LEU128      0.0001
     29  CD2       31.8460   15.7540   29.1890 C.3   128  LEU128      0.0001
     30  N         33.8510   30.8330   36.5800 N.3   262  ASN262     -0.1225
     31  CA        34.5320   30.9410   35.3000 C.3   262  ASN262      0.1785
     32  C         34.3080   29.6930   34.4610 C.2   262  ASN262      0.2597
     33  O         34.4270   28.5670   34.9460 O.2   262  ASN262     -0.2718
     34  CB        36.0320   31.1650   35.5140 C.3   262  ASN262      0.1169
     35  CG        36.3180   32.3630   36.4030 C.2   262  ASN262      0.2627
     36  OD1       35.8690   33.4730   36.1220 O.2   262  ASN262     -0.2716
     37  ND2       37.0600   32.1440   37.4810 N.am  262  ASN262     -0.0877
     38  N         33.9700   29.8950   33.2000 N.am  263  ASP263     -0.1960
     39  CA        33.7460   28.7720   32.3070 C.3   263  ASP263      0.1840
     40  C         34.7900   28.9280   31.2120 C.2   263  ASP263      0.2622
     41  O         34.8290   29.9540   30.5320 O.2   263  ASP263     -0.2715
     42  CB        32.3340   28.8400   31.7160 C.3   263  ASP263      0.1450
     43  CG        31.9450   27.5760   30.9640 C.2   263  ASP263      0.3671
     44  OD1       31.8150   26.5080   31.6000 O.co2 263  ASP263     -0.2456
     45  OD2       31.7710   27.6550   29.7320 O.co2 263  ASP263     -0.2456
     46  N         35.6570   27.9360   31.0570 N.am  264  ASN264     -0.1972
     47  CA        36.6820   28.0180   30.0230 C.3   264  ASN264      0.1688
     48  C         37.6730   29.1500   30.2660 C.2   264  ASN264      0.2292
     49  O         38.1180   29.7960   29.3190 O.2   264  ASN264     -0.2864
     50  CB        36.0290   28.2220   28.6530 C.3   264  ASN264      0.1181
     51  CG        36.0890   26.9850   27.7930 C.2   264  ASN264      0.2629
     52  OD1       37.1630   26.5760   27.3480 O.2   264  ASN264     -0.2716
     53  ND2       34.9370   26.3760   27.5580 N.am  264  ASN264     -0.0877
     54  N         38.9080   17.0970   33.0620 N.3   310  ASP310     -0.1239
     55  CA        39.7850   18.2290   32.7930 C.3   310  ASP310      0.1674
     56  C         40.9380   18.1350   33.7880 C.2   310  ASP310      0.2266
     57  O         41.0880   17.1150   34.4560 O.2   310  ASP310     -0.2867
     58  CB        39.0460   19.5630   32.9340 C.3   310  ASP310      0.1410
     59  CG        39.7060   20.6760   32.1310 C.2   310  ASP310      0.3668
     60  OD1       38.9740   21.5140   31.5670 O.co2 310  ASP310     -0.2456
     61  OD2       40.9480   20.7290   32.0730 O.co2 310  ASP310     -0.2456
     62  N         41.3380   20.0260   36.4840 N.3   312  HIS312     -0.1241
     63  CA        40.9610   20.5000   37.8090 C.3   312  HIS312      0.1621
     64  C         41.3720   19.5490   38.9360 C.2   312  HIS312      0.2264
     65  O         41.8260   19.9940   39.9870 O.2   312  HIS312     -0.2867
     66  CB        39.4560   20.7890   37.8420 C.3   312  HIS312      0.0745
     67  CG        39.0150   21.7240   36.7610 C.ar  312  HIS312      0.0817
     68  ND1       37.7050   21.8330   36.3530 N.ar  312  HIS312     -0.2268
     69  CD2       39.7220   22.5850   35.9890 C.ar  312  HIS312      0.1154
     70  CE1       37.6220   22.7200   35.3760 C.ar  312  HIS312      0.1986
     71  NE2       38.8320   23.1900   35.1370 N.ar  312  HIS312     -0.2212
     72  N         39.0320   19.2680   27.6290 N.3   348  HIS348     -0.1226
     73  CA        37.8030   19.8960   27.1500 C.3   348  HIS348      0.1752
     74  C         38.0010   21.2030   26.3900 C.2   348  HIS348      0.2596
     75  O         37.0230   21.8470   26.0250 O.2   348  HIS348     -0.2718
     76  CB        36.8650   20.1900   28.3270 C.3   348  HIS348      0.0759
     77  CG        36.4320   18.9840   29.0960 C.ar  348  HIS348      0.0818
     78  ND1       35.2610   18.3090   28.8270 N.ar  348  HIS348     -0.2268
     79  CD2       37.0020   18.3460   30.1460 C.ar  348  HIS348      0.1154
     80  CE1       35.1260   17.3080   29.6790 C.ar  348  HIS348      0.1986
     81  NE2       36.1700   17.3090   30.4900 N.ar  348  HIS348     -0.2212
     82  N         39.2440   21.6150   26.1620 N.am  349  THR349     -0.1953
     83  CA        39.4740   22.8730   25.4540 C.3   349  THR349      0.1897
     84  C         40.9110   23.0390   24.9770 C.2   349  THR349      0.2313
     85  O         41.8190   22.3820   25.4820 O.2   349  THR349     -0.2863
     86  CB        39.1340   24.0840   26.3550 C.3   349  THR349      0.1794
     87  OG1       39.3390   25.3040   25.6300 O.3   349  THR349     -0.2208
     88  CG2       40.0280   24.0950   27.5860 C.3   349  THR349      0.0378
     89  N         42.5010   29.0330   29.0640 N.3   354  ALA354     -0.1245
     90  CA        41.7440   28.0560   29.8490 C.3   354  ALA354      0.1562
     91  C         42.6090   26.9680   30.4880 C.2   354  ALA354      0.2260
     92  O         42.1520   26.2640   31.3950 O.2   354  ALA354     -0.2867
     93  CB        40.6690   27.4120   28.9790 C.3   354  ALA354      0.0290
     94  N         36.9310   15.5360   23.3180 N.3   426  VAL426     -0.1245
     95  CA        35.4920   15.3200   23.4320 C.3   426  VAL426      0.1561
     96  C         34.6480   15.3830   22.1670 C.2   426  VAL426      0.2260
     97  O         33.4220   15.4330   22.2350 O.2   426  VAL426     -0.2867
     98  CB        34.9220   16.2770   24.4850 C.3   426  VAL426      0.0252
     99  CG1       35.4450   15.8700   25.8620 C.3   426  VAL426      0.0019
    100  CG2       35.3380   17.7090   24.1670 C.3   426  VAL426      0.0019
    101  N         31.2810   13.6220   23.0140 N.3   455  ASN455     -0.1240
    102  CA        30.3070   13.9040   24.0600 C.3   455  ASN455      0.1653
    103  C         28.8960   13.4570   23.6830 C.2   455  ASN455      0.2266
    104  O         28.6090   13.1320   22.5360 O.2   455  ASN455     -0.2867
    105  CB        30.2940   15.4120   24.3670 C.3   455  ASN455      0.1155
    106  CG        31.4590   15.8500   25.2610 C.2   455  ASN455      0.2627
    107  OD1       31.6870   17.0500   25.4670 O.2   455  ASN455     -0.2716
    108  ND2       32.1860   14.8840   25.8030 N.am  455  ASN455     -0.0877
    109  N         34.4910   33.5570   21.9500 N.3   544  TYR544     -0.1227
    110  CA        34.6540   32.4960   20.9640 C.3   544  TYR544      0.1736
    111  C         33.3160   31.9020   20.5140 C.2   544  TYR544      0.2595
    112  O         33.2110   31.3930   19.3960 O.2   544  TYR544     -0.2718
    113  CB        35.6160   31.4100   21.4900 C.3   544  TYR544      0.0548
    114  CG        35.0140   30.2930   22.3210 C.ar  544  TYR544     -0.0200
    115  CD1       34.4090   29.1920   21.7150 C.ar  544  TYR544     -0.0009
    116  CD2       35.0990   30.3130   23.7120 C.ar  544  TYR544     -0.0009
    117  CE1       33.9100   28.1390   22.4760 C.ar  544  TYR544      0.0417
    118  CE2       34.6070   29.2760   24.4760 C.ar  544  TYR544      0.0417
    119  CZ        34.0160   28.1920   23.8580 C.ar  544  TYR544      0.1957
    120  OH        33.5330   27.1630   24.6290 O.3   544  TYR544     -0.2866
    121  N         32.2990   31.9820   21.3690 N.am  545  LYS545     -0.1980
    122  CA        30.9790   31.4570   21.0310 C.3   545  LYS545      0.1596
    123  C         30.2710   32.4210   20.0700 C.2   545  LYS545      0.2287
    124  O         29.2280   32.1020   19.4950 O.2   545  LYS545     -0.2864
    125  CB        30.1530   31.2310   22.3080 C.3   545  LYS545      0.0298
    126  CG        30.6520   30.0440   23.1570 C.3   545  LYS545      0.0038
    127  CD        29.9090   29.9250   24.4950 C.3   545  LYS545      0.0206
    128  CE        30.4860   28.8270   25.3990 C.3   545  LYS545      0.1093
    129  NZ        30.2660   27.4530   24.8550 N.3   545  LYS545     -0.1314
    130  N         35.2860   25.5400   19.8580 N.3   643  GLU643     -0.1231
    131  CA        34.3420   24.8100   20.7120 C.3   643  GLU643      0.1699
    132  C         34.7420   23.3360   20.6680 C.2   643  GLU643      0.2592
    133  O         34.4780   22.6590   19.6850 O.2   643  GLU643     -0.2718
    134  CB        32.9120   24.9830   20.1900 C.3   643  GLU643      0.0402
    135  CG        31.7980   24.5340   21.1510 C.3   643  GLU643      0.1161
    136  CD        31.7000   25.4060   22.3950 C.2   643  GLU643      0.3649
    137  OE1       32.4030   25.1260   23.3890 O.co2 643  GLU643     -0.2457
    138  OE2       30.9300   26.3900   22.3750 O.co2 643  GLU643     -0.2457
    139  N         35.3850   22.8400   21.7240 N.am  644  ALA644     -0.1966
    140  CA        35.8320   21.4440   21.7460 C.3   644  ALA644      0.1728
    141  C         34.7570   20.4840   21.2390 C.2   644  ALA644      0.2617
    142  O         35.0060   19.6510   20.3630 O.2   644  ALA644     -0.2715
    143  CB        36.2620   21.0450   23.1560 C.3   644  ALA644      0.0334
    144  N         33.5550   20.6110   21.7810 N.am  645  SER645     -0.1936
    145  CA        32.4670   19.7430   21.3700 C.3   645  SER645      0.2055
    146  C         31.1430   20.4640   21.3200 C.2   645  SER645      0.2644
    147  O         30.5200   20.5850   20.2620 O.2   645  SER645     -0.2714
    148  CB        32.3360   18.5640   22.3330 C.3   645  SER645      0.2130
    149  OG        31.1210   17.8670   22.1150 O.3   645  SER645     -0.2179
    150  N         30.7330   20.9650   22.4770 N.am  646  GLY646     -0.1939
    151  CA        29.4430   21.6070   22.5840 C.3   646  GLY646      0.2014
    152  C         28.5030   20.4600   22.9260 C.2   646  GLY646      0.2639
    153  O         28.7630   19.3220   22.5390 O.2   646  GLY646     -0.2714
    154  N         27.4500   20.7330   23.6880 N.am  647  THR647     -0.1950
    155  CA        26.4750   19.7030   24.0420 C.3   647  THR647      0.1897
    156  C         25.0850   20.2920   23.8780 C.2   647  THR647      0.2313
    157  O         24.1170   19.5720   23.6120 O.2   647  THR647     -0.2863
    158  CB        26.6590   19.1780   25.4850 C.3   647  THR647      0.1794
    159  OG1       26.7320   20.2740   26.3980 O.3   647  THR647     -0.2208
    160  CG2       27.9230   18.3370   25.5870 C.3   647  THR647      0.0378
@<TRIPOS>BOND
     1   112   111    2
     2   124   123    2
     3   133   132    2
     4   130   131    1
     5   123   122    1
     6   134   131    1
     7   134   135    1
     8   147   146    2
     9   142   141    2
    10   111   110    1
    11   111   121   am
    12   132   131    1
    13   132   139   am
    14   110   113    1
    15   110   109    1
    16   122   121    1
    17   122   125    1
    18   135   136    1
    19   141   140    1
    20   141   144   am
    21   146   145    1
    22   146   150   am
    23   145   144    1
    24   145   148    1
    25   113   114    1
    26   115   114   ar
    27   115   117   ar
    28   139   140    1
    29   140   143    1
    30   149   148    1
    31    96    97    2
    32    96    95    1
    33   125   126    1
    34   114   116   ar
    35   138   136   ar
    36   136   137   ar
    37   117   119   ar
    38   150   151    1
    39   104   103    2
    40   153   152    2
    41   151   152    1
    42   152   154   am
    43   101   102    1
    44   126   127    1
    45    94    95    1
    46    95    98    1
    47   157   156    2
    48   103   102    1
    49   154   155    1
    50   116   118   ar
    51   119   118   ar
    52   119   120    1
    53   156   155    1
    54   155   158    1
    55   102   105    1
    56   100    98    1
    57   105   106    1
    58    98    99    1
    59   127   128    1
    60   129   128    1
    61    84    83    1
    62    84    85    2
    63   106   107    2
    64   106   108   am
    65    83    82    1
    66    83    86    1
    67   158   160    1
    68   158   159    1
    69    87    86    1
    70    75    74    2
    71    82    74   am
    72    86    88    1
    73    74    73    1
    74    73    72    1
    75    73    76    1
    76    52    51    2
    77    53    51   am
    78    51    50    1
    79    76    77    1
    80    28    27    1
    81    50    47    1
    82    78    77   ar
    83    78    80   ar
    84    93    90    1
    85    89    90    1
    86    77    79   ar
    87    29    27    1
    88    49    48    2
    89    11    10    1
    90    11    12    1
    91    27    26    1
    92    80    81   ar
    93    45    43   ar
    94    90    91    1
    95    47    48    1
    96    47    46    1
    97    79    81   ar
    98    12    13    2
    99    12    14   am
   100    26    23    1
   101    91    92    2
   102    41    40    2
   103    14    15    1
   104    43    44   ar
   105    43    42    1
   106    23    22    1
   107    23    24    1
   108    46    40   am
   109    40    39    1
   110    15    18    1
   111    15    16    1
   112    60    59   ar
   113    42    39    1
   114    18    19    1
   115    25    24    2
   116    61    59   ar
   117    59    58    1
   118    39    38    1
   119    20    19    1
   120    16    17    2
   121    19    21    1
   122    55    58    1
   123    55    54    1
   124    55    56    1
   125    38    32   am
   126    56    57    2
   127    32    33    2
   128    32    31    1
   129    71    70   ar
   130    71    69   ar
   131    31    34    1
   132    31    30    1
   133    70    68   ar
   134    34    35    1
   135     9     7   ar
   136    69    67   ar
   137    36    35    2
   138    68    67   ar
   139    35    37   am
   140    62    63    1
   141     8     7   ar
   142     7     6    1
   143    67    66    1
   144     5     6    1
   145     5     2    1
   146     4     3    2
   147    63    66    1
   148    63    64    1
   149     3     2    1
   150     2     1    1
   151    64    65    2
