@<TRIPOS>MOLECULE
tmp/2ff6C00.pdb
 193 187 0 0 0
SMALL
GASTEIGER

@<TRIPOS>ATOM
      1  N          8.4020    1.2930   12.6940 N.3    11  LEU11      -0.1245
      2  CA         9.3980    1.8300   13.6330 C.3    11  LEU11       0.1561
      3  C          9.8500    0.8730   14.7360 C.2    11  LEU11       0.2260
      4  O          9.0420    0.1410   15.3210 O.2    11  LEU11      -0.2867
      5  CB         8.8750    3.1130   14.2890 C.3    11  LEU11       0.0270
      6  CG         8.5940    4.3400   13.4240 C.3    11  LEU11       0.0019
      7  CD1        7.7730    5.3260   14.2290 C.3    11  LEU11       0.0001
      8  CD2        9.8880    4.9940   12.9160 C.3    11  LEU11       0.0001
      9  N         11.0590    6.6620   28.5600 N.3    21  ALA21      -0.1231
     10  CA        10.9620    6.7080   27.0940 C.3    21  ALA21       0.1679
     11  C         12.0750    5.8920   26.4260 C.2    21  ALA21       0.2434
     12  O         13.1400    5.6940   27.0180 O.2    21  ALA21      -0.2733
     13  CB        11.0200    8.1480   26.6120 C.3    21  ALA21       0.0304
     14  N         11.8410    5.4190   25.1990 N.am   22  PRO22      -0.2718
     15  CA        12.8900    4.7300   24.4480 C.3    22  PRO22       0.1535
     16  C         14.0320    5.7040   24.1350 C.2    22  PRO22       0.2598
     17  O         13.7750    6.8800   23.9050 O.2    22  PRO22      -0.2715
     18  CB        12.1810    4.3080   23.1580 C.3    22  PRO22       0.0310
     19  CG        11.0110    5.2320   23.0360 C.3    22  PRO22       0.0237
     20  CD        10.5780    5.5020   24.4380 C.3    22  PRO22       0.0939
     21  N         15.2720    5.2230   24.1590 N.am   23  ARG23      -0.1964
     22  CA        16.4240    6.0380   23.7610 C.3    23  ARG23       0.1729
     23  C         16.4420    6.2330   22.2520 C.2    23  ARG23       0.2616
     24  O         16.8270    7.2950   21.7550 O.2    23  ARG23      -0.2715
     25  CB        17.7440    5.3690   24.1720 C.3    23  ARG23       0.0348
     26  CG        17.9700    5.2100   25.6710 C.3    23  ARG23       0.0492
     27  CD        18.2410    6.4980   26.4270 C.3    23  ARG23       0.2205
     28  NE        18.4340    6.2210   27.8460 N.pl3  23  ARG23      -0.0865
     29  CZ        19.5970    5.9140   28.4140 C.cat  23  ARG23       0.5346
     30  NH1       20.7130    5.8440   27.6900 N.pl3  23  ARG23       0.1354
     31  NH2       19.6420    5.6760   29.7170 N.pl3  23  ARG23       0.1354
     32  N         16.0390    5.1910   21.5320 N.am   24  ALA24      -0.1963
     33  CA        16.1650    5.1590   20.0820 C.3    24  ALA24       0.1728
     34  C         14.8630    4.7620   19.4190 C.2    24  ALA24       0.2616
     35  O         14.2290    3.7720   19.8040 O.2    24  ALA24      -0.2715
     36  CB        17.2760    4.1990   19.6750 C.3    24  ALA24       0.0334
     37  N         14.4730    5.5530   18.4260 N.am   25  VAL25      -0.1963
     38  CA        13.3230    5.2710   17.5840 C.3    25  VAL25       0.1727
     39  C         13.7790    5.4750   16.1470 C.2    25  VAL25       0.2616
     40  O         14.2220    6.5620   15.7820 O.2    25  VAL25      -0.2715
     41  CB        12.1100    6.1970   17.9030 C.3    25  VAL25       0.0290
     42  CG1       10.9070    5.8260   17.0370 C.3    25  VAL25       0.0023
     43  CG2       11.7390    6.1440   19.3920 C.3    25  VAL25       0.0023
     44  N         13.6920    4.4220   15.3390 N.am   26  PHE26      -0.1960
     45  CA        14.1980    4.4530   13.9570 C.3    26  PHE26       0.1756
     46  C         13.3910    3.5180   13.0490 C.2    26  PHE26       0.2461
     47  O         12.7600    2.5800   13.5480 O.2    26  PHE26      -0.2730
     48  CB        15.7070    4.1230   13.9180 C.3    26  PHE26       0.0574
     49  CG        16.0530    2.7360   14.4140 C.ar   26  PHE26      -0.0200
     50  CD1       16.0860    1.6550   13.5360 C.ar   26  PHE26      -0.0042
     51  CD2       16.3550    2.5180   15.7580 C.ar   26  PHE26      -0.0042
     52  CE1       16.4020    0.3820   13.9850 C.ar   26  PHE26      -0.0003
     53  CE2       16.6720    1.2500   16.2200 C.ar   26  PHE26      -0.0003
     54  CZ        16.7020    0.1750   15.3270 C.ar   26  PHE26      -0.0000
     55  N         13.3930    3.7750   11.7330 N.am   27  PRO27      -0.2727
     56  CA        12.6390    2.9520   10.7780 C.3    27  PRO27       0.1402
     57  C         13.1150    1.5020   10.7420 C.2    27  PRO27       0.2269
     58  O         14.3160    1.2550   10.6400 O.2    27  PRO27      -0.2865
     59  CB        12.9180    3.6140    9.4150 C.3    27  PRO27       0.0296
     60  CG        13.4950    4.9380    9.7010 C.3    27  PRO27       0.0237
     61  CD        14.1050    4.8810   11.0650 C.3    27  PRO27       0.0939
     62  N         17.9380    4.6470   10.0450 N.3    41  ASP41      -0.1239
     63  CA        18.1020    6.0280    9.5760 C.3    41  ASP41       0.1674
     64  C         19.1290    6.1710    8.4460 C.2    41  ASP41       0.2266
     65  O         18.9410    6.9830    7.5370 O.2    41  ASP41      -0.2867
     66  CB        18.4440    6.9640   10.7440 C.3    41  ASP41       0.1410
     67  CG        19.4470    6.3570   11.7170 C.2    41  ASP41       0.3668
     68  OD1       19.1200    5.3340   12.3710 O.co2  41  ASP41      -0.2456
     69  OD2       20.5880    6.8410   11.9010 O.co2  41  ASP41      -0.2456
     70  N         17.5350    5.1450    5.1640 N.3    44  GLN44      -0.1231
     71  CA        16.5960    6.1760    4.7160 C.3    44  GLN44       0.1698
     72  C         17.2990    7.2490    3.8800 C.2    44  GLN44       0.2592
     73  O         16.8920    7.5280    2.7490 O.2    44  GLN44      -0.2718
     74  CB        15.8990    6.8160    5.9250 C.3    44  GLN44       0.0381
     75  CG        14.6080    7.5670    5.6080 C.3    44  GLN44       0.0905
     76  CD        13.3890    6.6590    5.5590 C.2    44  GLN44       0.2608
     77  OE1       13.2830    5.7920    4.6890 O.2    44  GLN44      -0.2717
     78  NE2       12.4610    6.8650    6.4850 N.am   44  GLN44      -0.0878
     79  N         18.3580    7.8320    4.4380 N.am   45  SER45      -0.1952
     80  CA        19.1040    8.9060    3.7780 C.3    45  SER45       0.1924
     81  C         19.8070    8.4540    2.4940 C.2    45  SER45       0.2314
     82  O         19.9220    9.2270    1.5400 O.2    45  SER45      -0.2863
     83  CB        20.1120    9.5340    4.7450 C.3    45  SER45       0.2116
     84  OG        21.0730    8.5850    5.1700 O.3    45  SER45      -0.2180
     85  N         18.8010    6.3480    0.2500 N.3    47  ARG47      -0.1245
     86  CA        17.8090    5.6250   -0.5600 C.3    47  ARG47       0.1563
     87  C         17.9950    5.7620   -2.0740 C.2    47  ARG47       0.2260
     88  O         17.4400    4.9720   -2.8440 O.2    47  ARG47      -0.2867
     89  CB        16.3790    5.9980   -0.1480 C.3    47  ARG47       0.0307
     90  CG        15.8490    7.3180   -0.7130 C.3    47  ARG47       0.0489
     91  CD        14.5710    7.8050   -0.0380 C.3    47  ARG47       0.2205
     92  NE        13.6160    6.7160    0.1800 N.pl3  47  ARG47      -0.0865
     93  CZ        12.7510    6.6650    1.1860 C.cat  47  ARG47       0.5346
     94  NH1       12.7090    7.6410    2.0870 N.pl3  47  ARG47       0.1354
     95  NH2       11.9260    5.6310    1.2990 N.pl3  47  ARG47       0.1354
     96  N         22.5150    1.7270   18.1360 N.3    78  GLU78      -0.1245
     97  CA        21.5770    2.6430   18.7860 C.3    78  GLU78       0.1567
     98  C         21.7090    2.6510   20.3070 C.2    78  GLU78       0.2260
     99  O         21.9590    3.6980   20.9060 O.2    78  GLU78      -0.2867
    100  CB        20.1340    2.3520   18.3530 C.3    78  GLU78       0.0388
    101  CG        19.8880    2.4930   16.8550 C.3    78  GLU78       0.1160
    102  CD        19.7760    3.9350   16.3740 C.2    78  GLU78       0.3649
    103  OE1       19.6130    4.8580   17.2050 O.co2  78  GLU78      -0.2457
    104  OE2       19.8330    4.1520   15.1450 O.co2  78  GLU78      -0.2457
    105  N         10.4160    7.9790   -2.2080 N.3   189  ALA189     -0.1245
    106  CA        10.9700    9.1660   -1.5590 C.3   189  ALA189      0.1562
    107  C          9.8580   10.1510   -1.2060 C.2   189  ALA189      0.2260
    108  O          9.8420   10.7080   -0.1060 O.2   189  ALA189     -0.2867
    109  CB        12.0080    9.8270   -2.4490 C.3   189  ALA189      0.0290
    110  N          7.3890    9.5260    1.9620 N.3   192  GLU192     -0.1231
    111  CA         7.7810   10.0030    3.2860 C.3   192  GLU192      0.1699
    112  C          7.3860   11.4590    3.5180 C.2   192  GLU192      0.2592
    113  O          7.0860   11.8460    4.6490 O.2   192  GLU192     -0.2718
    114  CB         9.2790    9.7790    3.5290 C.3   192  GLU192      0.0402
    115  CG         9.6920    8.3100    3.5580 C.3   192  GLU192      0.1161
    116  CD         8.9410    7.5030    4.6090 C.2   192  GLU192      0.3649
    117  OE1        9.0540    7.8260    5.8120 O.co2 192  GLU192     -0.2457
    118  OE2        8.2330    6.5430    4.2290 O.co2 192  GLU192     -0.2457
    119  N          7.3720   12.2510    2.4440 N.am  193  ILE193     -0.1980
    120  CA         6.8780   13.6340    2.4960 C.3   193  ILE193      0.1595
    121  C          5.3770   13.6700    2.8120 C.2   193  ILE193      0.2287
    122  O          4.9220   14.4980    3.6040 O.2   193  ILE193     -0.2864
    123  CB         7.1630   14.3940    1.1620 C.3   193  ILE193      0.0276
    124  CG1        8.6200   14.2090    0.6910 C.3   193  ILE193      0.0022
    125  CG2        6.7820   15.8710    1.2860 C.3   193  ILE193      0.0022
    126  CD1        9.6930   14.5900    1.7140 C.3   193  ILE193      0.0001
    127  N          3.6930   11.2350    4.2780 N.3   195  ARG195     -0.1231
    128  CA         3.5800   10.7330    5.6470 C.3   195  ARG195      0.1694
    129  C          3.6910   11.8890    6.6500 C.2   195  ARG195      0.2592
    130  O          2.9340   11.9510    7.6240 O.2   195  ARG195     -0.2718
    131  CB         4.6470    9.6670    5.9230 C.3   195  ARG195      0.0321
    132  CG         4.5120    8.9880    7.2780 C.3   195  ARG195      0.0489
    133  CD         5.6920    8.1100    7.6680 C.3   195  ARG195      0.2205
    134  NE         6.9810    8.7750    7.4770 N.pl3 195  ARG195     -0.0865
    135  CZ         7.4990    9.6910    8.2930 C.cat 195  ARG195      0.5346
    136  NH1        6.8460   10.0810    9.3800 N.pl3 195  ARG195      0.1354
    137  NH2        8.6830   10.2240    8.0150 N.pl3 195  ARG195      0.1354
    138  N          4.6220   12.8070    6.3970 N.am  196  ASP196     -0.1974
    139  CA         4.7740   13.9910    7.2380 C.3   196  ASP196      0.1709
    140  C          3.5600   14.9200    7.1780 C.2   196  ASP196      0.2293
    141  O          3.1360   15.4440    8.2050 O.2   196  ASP196     -0.2864
    142  CB         6.0440   14.7620    6.8770 C.3   196  ASP196      0.1436
    143  CG         6.3670   15.8490    7.8860 C.2   196  ASP196      0.3671
    144  OD1        6.6440   16.9930    7.4690 O.co2 196  ASP196     -0.2456
    145  OD2        6.3530   15.6520    9.1230 O.co2 196  ASP196     -0.2456
    146  N          1.3900   23.4150    3.2100 N.3   225  TYR225     -0.1241
    147  CA         2.5580   22.6180    3.5730 C.3   225  TYR225      0.1605
    148  C          3.7090   22.9150    2.6190 C.2   225  TYR225      0.2264
    149  O          3.5390   22.8810    1.4000 O.2   225  TYR225     -0.2867
    150  CB         2.2170   21.1210    3.5740 C.3   225  TYR225      0.0534
    151  CG         3.3690   20.2030    3.9470 C.ar  225  TYR225     -0.0201
    152  CD1        4.1780   19.6350    2.9630 C.ar  225  TYR225     -0.0009
    153  CD2        3.6420   19.8960    5.2810 C.ar  225  TYR225     -0.0009
    154  CE1        5.2350   18.7870    3.2940 C.ar  225  TYR225      0.0417
    155  CE2        4.6980   19.0500    5.6240 C.ar  225  TYR225      0.0417
    156  CZ         5.4880   18.4980    4.6230 C.ar  225  TYR225      0.1957
    157  OH         6.5330   17.6600    4.9440 O.3   225  TYR225     -0.2866
    158  N         10.0140   19.9840    0.3630 N.3   228  PRO228     -0.2102
    159  CA        11.4680   20.1160    0.5280 C.3   228  PRO228      0.1504
    160  C         12.1050   21.0990   -0.4550 C.2   228  PRO228      0.2575
    161  O         12.9780   21.8770   -0.0600 O.2   228  PRO228     -0.2718
    162  CB        11.9830   18.6970    0.2610 C.3   228  PRO228      0.0282
    163  CG        10.8430   17.8260    0.5890 C.3   228  PRO228      0.0208
    164  CD         9.6230   18.5790    0.1410 C.3   228  PRO228      0.0893
    165  N         11.6590   21.0650   -1.7120 N.am  229  ASP229     -0.1974
    166  CA        12.1630   21.9750   -2.7460 C.3   229  ASP229      0.1708
    167  C         11.7250   23.4290   -2.5260 C.2   229  ASP229      0.2293
    168  O         12.3070   24.3470   -3.1020 O.2   229  ASP229     -0.2864
    169  CB        11.7850   21.4840   -4.1560 C.3   229  ASP229      0.1436
    170  CG        10.2770   21.4450   -4.3960 C.2   229  ASP229      0.3671
    171  OD1        9.8690   21.1250   -5.5330 O.co2 229  ASP229     -0.2456
    172  OD2        9.4220   21.7130   -3.5260 O.co2 229  ASP229     -0.2456
    173  N          2.1200    6.8750   21.2760 N.3   321  LYS321     -0.1231
    174  CA         3.0800    6.3450   20.2920 C.3   321  LYS321      0.1693
    175  C          4.1280    5.4520   20.9660 C.2   321  LYS321      0.2592
    176  O          4.7390    4.5920   20.3170 O.2   321  LYS321     -0.2718
    177  CB         3.8020    7.4720   19.5430 C.3   321  LYS321      0.0285
    178  CG         2.9420    8.2210   18.5410 C.3   321  LYS321      0.0035
    179  CD         3.7670    9.1050   17.5980 C.3   321  LYS321      0.0206
    180  CE         4.6550   10.0800   18.3560 C.3   321  LYS321      0.1093
    181  NZ         5.0750   11.2380   17.4980 N.3   321  LYS321     -0.1314
    182  N          4.3410    5.6710   22.2630 N.am  322  TYR322     -0.1976
    183  CA         5.3290    4.9140   23.0200 C.3   322  TYR322      0.1639
    184  C          4.7400    4.0550   24.1530 C.2   322  TYR322      0.2290
    185  O          5.4930    3.4920   24.9500 O.2   322  TYR322     -0.2864
    186  CB         6.3970    5.8540   23.5920 C.3   322  TYR322      0.0560
    187  CG         7.1560    6.6880   22.5720 C.ar  322  TYR322     -0.0198
    188  CD1        7.4600    6.1930   21.2960 C.ar  322  TYR322     -0.0009
    189  CD2        7.6120    7.9570   22.9040 C.ar  322  TYR322     -0.0009
    190  CE1        8.1720    6.9670   20.3720 C.ar  322  TYR322      0.0417
    191  CE2        8.3280    8.7320   21.9910 C.ar  322  TYR322      0.0417
    192  CZ         8.6010    8.2330   20.7300 C.ar  322  TYR322      0.1957
    193  OH         9.3120    9.0170   19.8380 O.3   322  TYR322     -0.2866
@<TRIPOS>BOND
     1   171   170   ar
     2   170   169    1
     3   170   172   ar
     4   169   166    1
     5   168   167    2
     6    88    87    2
     7   166   167    1
     8   166   165    1
     9   109   106    1
    10   105   106    1
    11    87    86    1
    12   165   160   am
    13   106   107    1
    14   107   108    2
    15    90    89    1
    16    90    91    1
    17    86    89    1
    18    86    85    1
    19   160   161    2
    20   160   159    1
    21    91    92    1
    22   164   158    1
    23   164   163    1
    24    92    93    2
    25   162   159    1
    26   162   163    1
    27   158   159    1
    28   124   123    1
    29   124   126    1
    30   123   125    1
    31   123   120    1
    32    93    95    1
    33    93    94    1
    34   149   148    2
    35    82    81    2
    36   110   111    1
    37   119   120    1
    38   119   112   am
    39    81    80    1
    40   120   121    1
    41   148   147    1
    42    73    72    2
    43   121   122    2
    44   152   154   ar
    45   152   151   ar
    46   146   147    1
    47   111   112    1
    48   111   114    1
    49   154   156   ar
    50   112   113    2
    51   114   115    1
    52   115   116    1
    53   147   150    1
    54   150   151    1
    55    80    79    1
    56    80    83    1
    57    72    79   am
    58    72    71    1
    59   151   153   ar
    60   118   116   ar
    61   127   128    1
    62   116   117   ar
    63   156   157    1
    64   156   155   ar
    65    77    76    2
    66    71    70    1
    67    71    74    1
    68    83    84    1
    69   153   155   ar
    70    76    75    1
    71    76    78   am
    72    75    74    1
    73   128   131    1
    74   128   129    1
    75   131   132    1
    76   138   129   am
    77   138   139    1
    78   129   130    2
    79   142   139    1
    80   142   143    1
    81   140   139    1
    82   140   141    2
    83   132   133    1
    84   144   143   ar
    85   134   133    1
    86   134   135    2
    87    65    64    2
    88   143   145   ar
    89   137   135    1
    90   135   136    1
    91    64    63    1
    92    59    60    1
    93    59    56    1
    94    63    62    1
    95    63    66    1
    96    60    61    1
    97    58    57    2
    98    57    56    1
    99    66    67    1
   100    56    55    1
   101    61    55    1
   102    67    69   ar
   103    67    68   ar
   104    55    46   am
   105     1     2    1
   106     8     6    1
   107    46    47    2
   108    46    45    1
   109     6     7    1
   110     6     5    1
   111    50    52   ar
   112    50    49   ar
   113     2     5    1
   114     2     3    1
   115    48    45    1
   116    48    49    1
   117    45    44    1
   118    52    54   ar
   119    49    51   ar
   120     3     4    2
   121   104   102   ar
   122    54    53   ar
   123    44    39   am
   124    51    53   ar
   125    40    39    2
   126    39    38    1
   127   102   101    1
   128   102   103   ar
   129   101   100    1
   130    42    41    1
   131   181   180    1
   132    38    41    1
   133    38    37    1
   134   179   180    1
   135   179   178    1
   136    41    43    1
   137    96    97    1
   138   100    97    1
   139    37    34   am
   140   178   177    1
   141    97    98    1
   142    34    35    2
   143    34    33    1
   144   177   174    1
   145    36    33    1
   146   193   192    1
   147    33    32    1
   148   174   175    1
   149   174   173    1
   150    98    99    2
   151   176   175    2
   152   190   192   ar
   153   190   188   ar
   154   192   191   ar
   155   175   182   am
   156   188   187   ar
   157    32    23   am
   158    24    23    2
   159   191   189   ar
   160    23    22    1
   161   182   183    1
   162   187   189   ar
   163   187   186    1
   164   183   186    1
   165   183   184    1
   166    19    18    1
   167    19    20    1
   168    18    15    1
   169    22    21    1
   170    22    25    1
   171    17    16    2
   172    16    21   am
   173    16    15    1
   174   184   185    2
   175    25    26    1
   176    20    14    1
   177    15    14    1
   178    14    11   am
   179    26    27    1
   180    11    12    2
   181    11    10    1
   182    27    28    1
   183    13    10    1
   184    10     9    1
   185    30    29    1
   186    28    29    2
   187    29    31    1
