@<TRIPOS>MOLECULE
tmp/2ff7A00.pdb
 115 109 0 0 0
SMALL
GASTEIGER

@<TRIPOS>ATOM
      1  N        151.3600   68.4520  -67.1220 N.3    13  TYR13      -0.1227
      2  CA       151.8960   69.6180  -66.4150 C.3    13  TYR13       0.1736
      3  C        151.0890   70.8980  -66.5620 C.2    13  TYR13       0.2595
      4  O        151.0940   71.7540  -65.6590 O.2    13  TYR13      -0.2718
      5  CB       153.3310   69.8700  -66.8170 C.3    13  TYR13       0.0548
      6  CG       154.2950   68.9580  -66.1280 C.ar   13  TYR13      -0.0200
      7  CD1      154.6920   67.7640  -66.7140 C.ar   13  TYR13      -0.0009
      8  CD2      154.8230   69.2980  -64.8800 C.ar   13  TYR13      -0.0009
      9  CE1      155.6360   66.9160  -66.0730 C.ar   13  TYR13       0.0417
     10  CE2      155.7430   68.4740  -64.2370 C.ar   13  TYR13       0.0417
     11  CZ       156.1310   67.2780  -64.8330 C.ar   13  TYR13       0.1957
     12  OH       157.0320   66.4670  -64.1890 O.3    13  TYR13      -0.2866
     13  N        150.4000   71.0240  -67.6840 N.am   14  LYS14      -0.1980
     14  CA       149.5920   72.2110  -67.9540 C.3    14  LYS14       0.1596
     15  C        148.3000   71.8070  -68.6560 C.2    14  LYS14       0.2287
     16  O        148.2520   70.7630  -69.2980 O.2    14  LYS14      -0.2864
     17  CB       150.3970   73.2060  -68.7960 C.3    14  LYS14       0.0298
     18  CG       151.4230   74.0110  -68.0050 C.3    14  LYS14       0.0038
     19  CD       152.3010   74.8620  -68.9390 C.3    14  LYS14       0.0206
     20  CE       153.1890   73.9810  -69.8110 C.3    14  LYS14       0.1093
     21  NZ       154.1860   74.7720  -70.5850 N.3    14  LYS14      -0.1314
     22  N        148.6050   70.5730  -72.0350 N.3    17  SER17      -0.1217
     23  CA       149.8010   69.7460  -72.1990 C.3    17  SER17       0.1889
     24  C        149.5390   68.2500  -72.4150 C.2    17  SER17       0.2288
     25  O        148.4340   67.7700  -72.1670 O.2    17  SER17      -0.2866
     26  CB       150.7230   69.9580  -70.9980 C.3    17  SER17       0.2089
     27  OG       151.5610   71.0690  -71.2220 O.3    17  SER17      -0.2183
     28  N        151.4180   62.8960  -69.1370 N.3    20  ILE20      -0.1245
     29  CA       152.7560   62.4210  -68.7640 C.3    20  ILE20       0.1561
     30  C        152.6880   61.1120  -67.9960 C.2    20  ILE20       0.2260
     31  O        153.5860   60.2860  -68.0820 O.2    20  ILE20      -0.2867
     32  CB       153.4700   63.4810  -67.8750 C.3    20  ILE20       0.0252
     33  CG1      153.7050   64.7870  -68.6530 C.3    20  ILE20       0.0019
     34  CG2      154.8060   62.9190  -67.2820 C.3    20  ILE20       0.0019
     35  CD1      154.2310   64.5810  -70.0620 C.3    20  ILE20       0.0001
     36  N        164.7710   58.0350  -70.8870 N.3    40  SER40      -0.1202
     37  CA       164.6070   59.4650  -70.6130 C.3    40  SER40       0.2020
     38  C        163.2240   59.9040  -71.0570 C.2    40  SER40       0.2619
     39  O        162.7770   59.5750  -72.1590 O.2    40  SER40      -0.2717
     40  CB       165.6720   60.2980  -71.3510 C.3    40  SER40       0.2103
     41  OG       166.9520   59.9970  -70.8100 O.3    40  SER40      -0.2182
     42  N        162.5290   60.6110  -70.1660 N.am   41  GLY41      -0.1942
     43  CA       161.2060   61.1270  -70.4460 C.3    41  GLY41       0.2014
     44  C        160.0650   60.1490  -70.2890 C.2    41  GLY41       0.2640
     45  O        158.9520   60.4530  -70.7120 O.2    41  GLY41      -0.2714
     46  N        160.3120   59.0070  -69.6360 N.am   42  SER42      -0.1935
     47  CA       159.2570   58.0090  -69.4240 C.3    42  SER42       0.2055
     48  C        158.3120   58.3920  -68.2900 C.2    42  SER42       0.2644
     49  O        157.2310   57.8250  -68.1800 O.2    42  SER42      -0.2714
     50  CB       159.8600   56.6180  -69.1990 C.3    42  SER42       0.2130
     51  OG       160.8270   56.6650  -68.1680 O.3    42  SER42      -0.2179
     52  N        158.7250   59.3460  -67.4500 N.am   43  GLY43      -0.1939
     53  CA       157.9060   59.8590  -66.3690 C.3    43  GLY43       0.2014
     54  C        158.4250   59.5160  -64.9780 C.2    43  GLY43       0.2639
     55  O        157.6830   59.6490  -64.0240 O.2    43  GLY43      -0.2714
     56  N        159.6810   59.0860  -64.8570 N.am   44  LYS44      -0.1963
     57  CA       160.2100   58.6400  -63.5640 C.3    44  LYS44       0.1728
     58  C        160.2440   59.7730  -62.5490 C.2    44  LYS44       0.2617
     59  O        159.6860   59.6480  -61.4540 O.2    44  LYS44      -0.2715
     60  CB       161.5840   57.9790  -63.7140 C.3    44  LYS44       0.0311
     61  CG       161.6360   56.9060  -64.8010 C.3    44  LYS44       0.0038
     62  CD       163.0260   56.3010  -64.8230 C.3    44  LYS44       0.0206
     63  CE       164.0870   57.2960  -65.3770 C.3    44  LYS44       0.1093
     64  NZ       163.8880   57.6820  -66.8510 N.3    44  LYS44      -0.1314
     65  N        160.8330   60.9000  -62.9170 N.am   45  SER45      -0.1936
     66  CA       160.9480   62.0210  -61.9910 C.3    45  SER45       0.2055
     67  C        159.5450   62.5860  -61.6530 C.2    45  SER45       0.2643
     68  O        159.2670   62.9720  -60.5010 O.2    45  SER45      -0.2714
     69  CB       161.8660   63.1080  -62.6160 C.3    45  SER45       0.2130
     70  OG       161.7760   64.2840  -61.8010 O.3    45  SER45      -0.2179
     71  N        158.6530   62.6080  -62.6470 N.am   46  THR46      -0.1950
     72  CA       157.2980   63.1340  -62.4550 C.3    46  THR46       0.1897
     73  C        156.6230   62.3490  -61.3810 C.2    46  THR46       0.2313
     74  O        155.9220   62.9240  -60.5430 O.2    46  THR46      -0.2863
     75  CB       156.5160   63.0360  -63.7570 C.3    46  THR46       0.1794
     76  OG1      157.1400   63.8850  -64.7190 O.3    46  THR46      -0.2208
     77  CG2      155.0570   63.5600  -63.6110 C.3    46  THR46       0.0378
     78  N        157.5700   63.7250  -58.0600 N.3    49  LYS49      -0.1245
     79  CA       157.1150   65.0840  -57.8490 C.3    49  LYS49       0.1561
     80  C        155.7360   65.0000  -57.2130 C.2    49  LYS49       0.2260
     81  O        155.3970   65.7900  -56.3330 O.2    49  LYS49      -0.2867
     82  CB       157.0730   65.8720  -59.1590 C.3    49  LYS49       0.0271
     83  CG       158.4340   66.0890  -59.7400 C.3    49  LYS49       0.0035
     84  CD       158.3140   66.8350  -61.0890 C.3    49  LYS49       0.0206
     85  CE       159.6050   66.7800  -61.8910 C.3    49  LYS49       0.1093
     86  NZ       159.4960   67.5860  -63.1840 N.3    49  LYS49      -0.1314
     87  N        152.8980   68.9220  -57.5960 N.3    55  TYR55      -0.1241
     88  CA       151.8220   69.0410  -58.5560 C.3    55  TYR55       0.1605
     89  C        150.6530   68.1620  -58.1150 C.2    55  TYR55       0.2264
     90  O        150.8100   67.2250  -57.3140 O.2    55  TYR55      -0.2867
     91  CB       152.2730   68.5940  -59.9500 C.3    55  TYR55       0.0534
     92  CG       153.4200   69.4070  -60.5470 C.ar   55  TYR55      -0.0201
     93  CD1      153.1630   70.5920  -61.2620 C.ar   55  TYR55      -0.0009
     94  CD2      154.7560   68.9980  -60.3970 C.ar   55  TYR55      -0.0009
     95  CE1      154.1990   71.3450  -61.8120 C.ar   55  TYR55       0.0417
     96  CE2      155.8100   69.7470  -60.9730 C.ar   55  TYR55       0.0417
     97  CZ       155.5180   70.9190  -61.6620 C.ar   55  TYR55       0.1957
     98  OH       156.5240   71.6740  -62.2310 O.3    55  TYR55      -0.2866
     99  N        167.5480   60.8800  -60.0530 N.3   167  GLU167     -0.1245
    100  CA       168.4640   60.3370  -61.0510 C.3   167  GLU167      0.1567
    101  C        169.8090   61.0540  -61.0730 C.2   167  GLU167      0.2260
    102  O        169.8560   62.2930  -61.0730 O.2   167  GLU167     -0.2867
    103  CB       167.8520   60.3760  -62.4560 C.3   167  GLU167      0.0388
    104  CG       168.5720   59.4960  -63.4660 C.3   167  GLU167      0.1160
    105  CD       167.8340   59.3710  -64.7890 C.2   167  GLU167      0.3649
    106  OE1      168.4410   58.8730  -65.7610 O.co2 167  GLU167     -0.2457
    107  OE2      166.6650   59.7880  -64.8910 O.co2 167  GLU167     -0.2457
    108  N        165.6180   56.4540  -58.4160 N.3   196  ILE196     -0.1245
    109  CA       165.4930   56.6120  -59.8590 C.3   196  ILE196      0.1561
    110  C        166.8440   56.3360  -60.5070 C.2   196  ILE196      0.2260
    111  O        167.8200   57.0990  -60.3290 O.2   196  ILE196     -0.2867
    112  CB       165.0140   58.0460  -60.2410 C.3   196  ILE196      0.0252
    113  CG1      163.7490   58.4280  -59.4830 C.3   196  ILE196      0.0019
    114  CG2      164.7340   58.1630  -61.7350 C.3   196  ILE196      0.0019
    115  CD1      162.5660   57.4750  -59.5800 C.3   196  ILE196      0.0001
@<TRIPOS>BOND
     1    24    23    1
     2    24    25    2
     3    23    22    1
     4    23    26    1
     5    39    38    2
     6    40    41    1
     7    40    37    1
     8    27    26    1
     9    38    37    1
    10    38    42   am
    11    36    37    1
    12    45    44    2
    13    21    20    1
    14    43    44    1
    15    43    42    1
    16    44    46   am
    17    35    33    1
    18    20    19    1
    19    46    47    1
    20    47    50    1
    21    47    48    1
    22    16    15    2
    23    50    51    1
    24    28    29    1
    25    19    18    1
    26    17    18    1
    27    17    14    1
    28    29    30    1
    29    29    32    1
    30    15    14    1
    31    33    32    1
    32    48    49    2
    33    48    52   am
    34    31    30    2
    35    14    13    1
    36    32    34    1
    37    13     3   am
    38    52    53    1
    39     1     2    1
    40    64    63    1
    41     5     2    1
    42     5     6    1
    43     7     6   ar
    44     7     9   ar
    45     3     2    1
    46     3     4    2
    47    53    54    1
    48     6     8   ar
    49     9    11   ar
    50   106   105   ar
    51    63    62    1
    52    54    56   am
    53    54    55    2
    54   107   105   ar
    55     8    10   ar
    56    56    57    1
    57    11    10   ar
    58    11    12    1
    59    62    61    1
    60    61    60    1
    61   105   104    1
    62    76    75    1
    63    75    77    1
    64    75    72    1
    65    60    57    1
    66    57    58    1
    67   104   103    1
    68    86    85    1
    69    65    58   am
    70    65    66    1
    71    71    72    1
    72    71    67   am
    73    69    66    1
    74    69    70    1
    75    58    59    2
    76   103   100    1
    77    72    73    1
    78    98    97    1
    79    66    67    1
    80    85    84    1
    81    95    97   ar
    82    95    93   ar
    83   114   112    1
    84    97    96   ar
    85    67    68    2
    86    73    74    2
    87    93    92   ar
    88    84    83    1
    89   101   102    2
    90   101   100    1
    91   100    99    1
    92    96    94   ar
    93    92    94   ar
    94    92    91    1
    95   110   111    2
    96   110   109    1
    97   112   109    1
    98   112   113    1
    99    91    88    1
   100   109   108    1
   101    83    82    1
   102   115   113    1
   103    82    79    1
   104    88    89    1
   105    88    87    1
   106    89    90    2
   107    78    79    1
   108    79    80    1
   109    80    81    2
