@<TRIPOS>MOLECULE
tmp/2ffaA01.pdb
 82 76 0 0 0
SMALL
GASTEIGER

@<TRIPOS>ATOM
      1  N        247.0620    9.0080  -13.5290 N.3    33  VAL33      -0.1245
      2  CA       247.9790    9.7880  -14.3010 C.3    33  VAL33       0.1561
      3  C        247.6070    9.4770  -15.7510 C.2    33  VAL33       0.2260
      4  O        247.7050    8.3190  -16.2120 O.2    33  VAL33      -0.2867
      5  CB       249.4620    9.4060  -14.0620 C.3    33  VAL33       0.0252
      6  CG1      250.3540   10.2240  -14.9790 C.3    33  VAL33       0.0019
      7  CG2      249.8810    9.6520  -12.5740 C.3    33  VAL33       0.0019
      8  N        262.1860   13.0000  -14.4320 N.3   181  MET181     -0.1245
      9  CA       261.6780   11.6340  -14.5970 C.3   181  MET181      0.1570
     10  C        261.8670   10.8150  -13.3180 C.2   181  MET181      0.2261
     11  O        260.9690   10.0690  -12.9250 O.2   181  MET181     -0.2867
     12  CB       262.3210   10.9080  -15.7830 C.3   181  MET181      0.0387
     13  CG       261.7280   11.1410  -17.2090 C.3   181  MET181      0.0595
     14  SD       260.0050   11.7380  -17.4730 S.3   181  MET181     -0.1393
     15  CE       260.2250   13.5560  -17.3730 C.3   181  MET181      0.0692
     16  N        259.1810   12.1430  -10.8600 N.3   184  MET184     -0.1230
     17  CA       257.7760   12.1910  -11.2970 C.3   184  MET184      0.1702
     18  C        256.8090   11.4940  -10.3630 C.2   184  MET184      0.2592
     19  O        255.7340   11.9860  -10.1250 O.2   184  MET184     -0.2718
     20  CB       257.5710   11.6600  -12.7150 C.3   184  MET184      0.0401
     21  CG       257.7880   12.6970  -13.7840 C.3   184  MET184      0.0596
     22  SD       256.5750   14.0960  -13.6440 S.3   184  MET184     -0.1393
     23  CE       255.2330   13.3360  -14.4220 C.3   184  MET184      0.0692
     24  N        257.1870   10.3370   -9.8360 N.am  185  HIS185     -0.1976
     25  CA       256.2880    9.6310   -8.9370 C.3   185  HIS185      0.1656
     26  C        256.0750   10.3790   -7.6280 C.2   185  HIS185      0.2291
     27  O        255.0110   10.2560   -7.0030 O.2   185  HIS185     -0.2864
     28  CB       256.7820    8.1980   -8.7050 C.3   185  HIS185      0.0771
     29  CG       258.0310    8.1150   -7.8890 C.ar  185  HIS185      0.0820
     30  ND1      259.2770    8.3960   -8.4070 N.ar  185  HIS185     -0.2267
     31  CD2      258.2290    7.7840   -6.5890 C.ar  185  HIS185      0.1154
     32  CE1      260.1870    8.2570   -7.4610 C.ar  185  HIS185      0.1986
     33  NE2      259.5790    7.8820   -6.3490 N.ar  185  HIS185     -0.2212
     34  N        253.7800   13.4220   -8.5510 N.3   188  CYS188     -0.1235
     35  CA       252.3930   13.0070   -8.8500 C.3   188  CYS188      0.1677
     36  C        251.6750   12.3050   -7.7160 C.2   188  CYS188      0.2270
     37  O        250.4410   12.2170   -7.7280 O.2   188  CYS188     -0.2867
     38  CB       252.3320   12.1140  -10.0800 C.3   188  CYS188      0.0956
     39  SG       252.9110   12.9040  -11.5920 S.3   188  CYS188     -0.0801
     40  N        249.0400   14.8510  -18.3450 N.3   195  ILE195     -0.1245
     41  CA       250.2450   15.2630  -19.1100 C.3   195  ILE195      0.1561
     42  C        249.9470   15.3540  -20.6000 C.2   195  ILE195      0.2260
     43  O        249.5600   14.3460  -21.2080 O.2   195  ILE195     -0.2867
     44  CB       251.3870   14.2330  -18.9140 C.3   195  ILE195      0.0252
     45  CG1      251.8120   14.1030  -17.4410 C.3   195  ILE195      0.0019
     46  CG2      252.5800   14.6300  -19.8130 C.3   195  ILE195      0.0019
     47  CD1      252.4890   12.7470  -17.1770 C.3   195  ILE195      0.0001
     48  N        256.9150    9.8830  -23.7130 N.3   202  THR202     -0.1203
     49  CA       256.7820   10.5690  -22.4310 C.3   202  THR202      0.1994
     50  C        255.7190    9.9620  -21.5150 C.2   202  THR202      0.2617
     51  O        255.8930    9.8910  -20.2670 O.2   202  THR202     -0.2717
     52  CB       256.4440   12.0550  -22.7020 C.3   202  THR202      0.1784
     53  OG1      257.5100   12.6110  -23.4840 O.3   202  THR202     -0.2211
     54  CG2      256.4520   12.8610  -21.4140 C.3   202  THR202      0.0376
     55  N        254.6360    9.4950  -22.1280 N.am  203  VAL203     -0.1979
     56  CA       253.5120    9.0050  -21.3330 C.3   203  VAL203      0.1595
     57  C        253.2710    7.5010  -21.5020 C.2   203  VAL203      0.2287
     58  O        252.1970    7.0030  -21.1820 O.2   203  VAL203     -0.2864
     59  CB       252.2190    9.8430  -21.5910 C.3   203  VAL203      0.0276
     60  CG1      252.3930   11.3040  -21.0690 C.3   203  VAL203      0.0022
     61  CG2      251.8150    9.8080  -23.0830 C.3   203  VAL203      0.0022
     62  N        254.0700    5.1600  -19.7330 N.3   205  ASN205     -0.1225
     63  CA       253.7330    4.5250  -18.4580 C.3   205  ASN205      0.1785
     64  C        252.5750    5.1760  -17.6720 C.2   205  ASN205      0.2597
     65  O        252.2980    4.8390  -16.5100 O.2   205  ASN205     -0.2718
     66  CB       255.0010    4.3510  -17.5970 C.3   205  ASN205      0.1169
     67  CG       256.0310    3.3960  -18.2330 C.2   205  ASN205      0.2627
     68  OD1      257.2300    3.7260  -18.3330 O.2   205  ASN205     -0.2716
     69  ND2      255.5810    2.2050  -18.6550 N.am  205  ASN205     -0.0877
     70  N        251.8520    6.0790  -18.3330 N.am  206  ALA206     -0.1966
     71  CA       250.6500    6.6470  -17.7200 C.3   206  ALA206      0.1728
     72  C        249.6090    5.5400  -17.5000 C.2   206  ALA206      0.2616
     73  O        249.5940    4.5100  -18.2220 O.2   206  ALA206     -0.2715
     74  CB       250.0790    7.7180  -18.6190 C.3   206  ALA206      0.0334
     75  N        248.7170    5.7460  -16.5300 N.am  207  ASP207     -0.1971
     76  CA       247.6400    4.7880  -16.2880 C.3   207  ASP207      0.1709
     77  C        246.7670    4.5940  -17.5260 C.2   207  ASP207      0.2293
     78  O        246.3180    3.4760  -17.7970 O.2   207  ASP207     -0.2864
     79  CB       246.7590    5.2010  -15.1160 C.3   207  ASP207      0.1436
     80  CG       247.5120    5.2470  -13.8150 C.2   207  ASP207      0.3671
     81  OD1      248.2640    4.2770  -13.5030 O.co2 207  ASP207     -0.2456
     82  OD2      247.4290    6.2070  -13.0230 O.co2 207  ASP207     -0.2456
@<TRIPOS>BOND
     1    48    49    1
     2    53    52    1
     3    61    59    1
     4    52    49    1
     5    52    54    1
     6    49    50    1
     7    55    50   am
     8    55    56    1
     9    59    56    1
    10    59    60    1
    11    50    51    2
    12    57    56    1
    13    57    58    2
    14    43    42    2
    15    42    41    1
    16    46    44    1
    17    62    63    1
    18    41    44    1
    19    41    40    1
    20    44    45    1
    21    69    67   am
    22    74    71    1
    23    63    64    1
    24    63    66    1
    25    70    71    1
    26    70    64   am
    27    68    67    2
    28    67    66    1
    29    73    72    2
    30    78    77    2
    31    71    72    1
    32    64    65    2
    33    77    76    1
    34    72    75   am
    35    14    15    1
    36    14    13    1
    37    45    47    1
    38    13    12    1
    39    75    76    1
    40    76    79    1
    41     4     3    2
    42    12     9    1
    43     3     2    1
    44    79    80    1
    45     6     5    1
    46     9     8    1
    47     9    10    1
    48    23    22    1
    49     2     5    1
    50     2     1    1
    51     5     7    1
    52    80    81   ar
    53    80    82   ar
    54    21    22    1
    55    21    20    1
    56    10    11    2
    57    20    17    1
    58    39    38    1
    59    17    16    1
    60    17    18    1
    61    18    19    2
    62    18    24   am
    63    38    35    1
    64    24    25    1
    65    25    28    1
    66    25    26    1
    67    35    34    1
    68    35    36    1
    69    28    29    1
    70    30    29   ar
    71    30    32   ar
    72    29    31   ar
    73    37    36    2
    74    26    27    2
    75    32    33   ar
    76    31    33   ar
