@<TRIPOS>MOLECULE
tmp/2ffcA00.pdb
 166 156 0 0 0
SMALL
GASTEIGER

@<TRIPOS>ATOM
      1  N         12.1410    8.8700   17.1340 N.3    22  ASP22      -0.1239
      2  CA        12.0370    7.4190   16.9460 C.3    22  ASP22       0.1674
      3  C         13.0310    6.7380   17.8650 C.2    22  ASP22       0.2266
      4  O         14.0450    6.2330   17.4000 O.2    22  ASP22      -0.2867
      5  CB        12.3780    7.0420   15.4930 C.3    22  ASP22       0.1410
      6  CG        11.3700    7.5880   14.4860 C.2    22  ASP22       0.3668
      7  OD1       10.2900    8.0750   14.9170 O.co2  22  ASP22      -0.2456
      8  OD2       11.6770    7.5330   13.2620 O.co2  22  ASP22      -0.2456
      9  N          7.4780   14.3490   14.4670 N.3   100  LYS100     -0.1245
     10  CA         6.8440   13.1480   13.9250 C.3   100  LYS100      0.1561
     11  C          7.3600   11.9890   14.7650 C.2   100  LYS100      0.2260
     12  O          8.5840   11.7770   14.8670 O.2   100  LYS100     -0.2867
     13  CB         7.2210   12.9770   12.4500 C.3   100  LYS100      0.0271
     14  CG         6.5430   11.7560   11.8090 C.3   100  LYS100      0.0035
     15  CD         6.7420   11.5920   10.2740 C.3   100  LYS100      0.0206
     16  CE         8.1340   11.1980    9.9190 C.3   100  LYS100      0.1093
     17  NZ         8.5730    9.8650   10.4110 N.3   100  LYS100     -0.1314
     18  N          7.3070    7.9150   15.1980 N.3   102  ASN102     -0.1240
     19  CA         6.9520    6.7110   14.4720 C.3   102  ASN102      0.1653
     20  C          6.4690    5.6600   15.4700 C.2   102  ASN102      0.2266
     21  O          7.2240    5.2330   16.3340 O.2   102  ASN102     -0.2867
     22  CB         8.1140    6.1680   13.6600 C.3   102  ASN102      0.1155
     23  CG         7.6550    5.0780   12.6930 C.2   102  ASN102      0.2627
     24  OD1        6.9710    4.1370   13.0940 O.2   102  ASN102     -0.2716
     25  ND2        7.9700    5.2420   11.4090 N.am  102  ASN102     -0.0877
     26  N          8.3930    2.3870   17.1030 N.3   105  PHE105     -0.1241
     27  CA         9.4040    2.4890   18.1940 C.3   105  PHE105      0.1605
     28  C          8.8430    2.3810   19.6170 C.2   105  PHE105      0.2264
     29  O          9.5810    2.0720   20.5710 O.2   105  PHE105     -0.2867
     30  CB        10.1760    3.8000   17.9810 C.3   105  PHE105      0.0534
     31  CG        11.0360    3.7280   16.7650 C.ar  105  PHE105     -0.0203
     32  CD1       12.3710    3.2930   16.8570 C.ar  105  PHE105     -0.0042
     33  CD2       10.4820    3.9500   15.5130 C.ar  105  PHE105     -0.0042
     34  CE1       13.1570    3.1610   15.6750 C.ar  105  PHE105     -0.0003
     35  CE2       11.2440    3.8640   14.3320 C.ar  105  PHE105     -0.0003
     36  CZ        12.5760    3.4530   14.3950 C.ar  105  PHE105     -0.0000
     37  N          3.4540    8.7410   12.7950 N.3   134  ASP134     -0.1239
     38  CA         3.7880    7.9770   11.5890 C.3   134  ASP134      0.1674
     39  C          3.3520    6.5460   11.8760 C.2   134  ASP134      0.2266
     40  O          4.0460    5.7690   12.5660 O.2   134  ASP134     -0.2867
     41  CB         5.2850    8.0620   11.2550 C.3   134  ASP134      0.1410
     42  CG         5.5920    7.7590    9.7900 C.2   134  ASP134      0.3668
     43  OD1        4.6990    7.2790    9.0440 O.co2 134  ASP134     -0.2456
     44  OD2        6.7400    8.0160    9.3630 O.co2 134  ASP134     -0.2456
     45  N          1.1510    4.9290    9.2360 N.3   136  LYS136     -0.1245
     46  CA         0.9660    4.3080    7.9210 C.3   136  LYS136      0.1561
     47  C         -0.3310    3.4800    7.8880 C.2   136  LYS136      0.2260
     48  O         -0.3910    2.3950    7.2880 O.2   136  LYS136     -0.2867
     49  CB         2.1970    3.4460    7.5200 C.3   136  LYS136      0.0271
     50  CG         3.5590    4.1980    7.5960 C.3   136  LYS136      0.0035
     51  CD         4.0930    4.3590    9.0230 C.3   136  LYS136      0.0206
     52  CE         4.3520    3.0310    9.7310 C.3   136  LYS136      0.1093
     53  NZ         5.0630    3.2020   11.0860 N.3   136  LYS136     -0.1314
     54  N          0.9920    7.9330    1.7870 N.3   189  LEU189     -0.1245
     55  CA         2.2480    7.5180    1.1940 C.3   189  LEU189      0.1561
     56  C          2.1060    7.5810   -0.3280 C.2   189  LEU189      0.2260
     57  O          1.2440    6.9030   -0.9370 O.2   189  LEU189     -0.2867
     58  CB         2.5550    6.0670    1.5830 C.3   189  LEU189      0.0270
     59  CG         3.2010    5.8420    2.9130 C.3   189  LEU189      0.0019
     60  CD1        2.6760    6.7000    4.0650 C.3   189  LEU189      0.0001
     61  CD2        3.1780    4.2920    3.1910 C.3   189  LEU189      0.0001
     62  N          5.5680    8.3230   -2.4510 N.3   191  LYS191     -0.1231
     63  CA         6.8980    7.8290   -2.8460 C.3   191  LYS191      0.1693
     64  C          7.7260    7.6920   -1.5880 C.2   191  LYS191      0.2593
     65  O          7.8390    8.6190   -0.8050 O.2   191  LYS191     -0.2718
     66  CB         7.5780    8.8620   -3.7800 C.3   191  LYS191      0.0285
     67  CG         7.5460    8.4240   -5.1800 C.3   191  LYS191      0.0035
     68  CD         8.8220    7.5490   -5.3210 C.3   191  LYS191      0.0206
     69  CE         8.5560    6.3850   -6.0620 C.3   191  LYS191      0.1093
     70  NZ         9.5770    5.3940   -5.7760 N.3   191  LYS191     -0.1314
     71  N          8.3040    6.5240   -1.4110 N.am  192  THR192     -0.1939
     72  CA         9.0390    6.2010   -0.1810 C.3   192  THR192      0.2028
     73  C         10.5660    6.1030   -0.4210 C.2   192  THR192      0.2643
     74  O         11.0370    6.1170   -1.5690 O.2   192  THR192     -0.2714
     75  CB         8.4130    4.9430    0.4730 C.3   192  THR192      0.1808
     76  OG1        8.4570    3.8100   -0.4200 O.3   192  THR192     -0.2208
     77  CG2        6.9130    5.2390    0.8500 C.3   192  THR192      0.0379
     78  N         11.3220    6.1580    0.6770 N.am  193  THR193     -0.1936
     79  CA        12.7730    6.3790    0.6280 C.3   193  THR193      0.2028
     80  C         13.5630    5.0920    0.4500 C.2   193  THR193      0.2642
     81  O         14.7860    5.1520    0.2040 O.2   193  THR193     -0.2714
     82  CB        13.2780    7.0290    1.9180 C.3   193  THR193      0.1808
     83  OG1       12.8510    6.2180    3.0280 O.3   193  THR193     -0.2208
     84  CG2       12.6750    8.4770    2.0650 C.3   193  THR193      0.0379
     85  N         12.9090    3.9370    0.5980 N.am  194  ASN194     -0.1971
     86  CA        13.6450    2.6510    0.5080 C.3   194  ASN194      0.1688
     87  C         14.1580    2.3940   -0.9200 C.2   194  ASN194      0.2292
     88  O         13.5640    2.8150   -1.9110 O.2   194  ASN194     -0.2864
     89  CB        12.7660    1.4780    0.9590 C.3   194  ASN194      0.1181
     90  CG        11.4060    1.5200    0.3140 C.2   194  ASN194      0.2629
     91  OD1       10.6330    2.4470    0.5660 O.2   194  ASN194     -0.2716
     92  ND2       11.1150    0.5350   -0.5460 N.am  194  ASN194     -0.0877
     93  N          3.2660   11.8550    1.5740 N.3   238  VAL238     -0.1245
     94  CA         4.6120   11.4930    1.9140 C.3   238  VAL238      0.1561
     95  C          5.4060   11.2570    0.6400 C.2   238  VAL238      0.2260
     96  O          5.0380   10.3730   -0.1410 O.2   238  VAL238     -0.2867
     97  CB         4.6710   10.2200    2.7910 C.3   238  VAL238      0.0252
     98  CG1        6.1430    9.9150    3.1360 C.3   238  VAL238      0.0019
     99  CG2        3.8550   10.5220    4.0510 C.3   238  VAL238      0.0019
    100  N         10.5340   12.5190    4.4940 N.3   262  PRO262     -0.2102
    101  CA        11.5760   11.9120    5.3100 C.3   262  PRO262      0.1504
    102  C         12.7610   11.4860    4.4580 C.2   262  PRO262      0.2576
    103  O         12.6370   11.4320    3.2210 O.2   262  PRO262     -0.2718
    104  CB        10.8800   10.6590    5.8760 C.3   262  PRO262      0.0282
    105  CG         9.9400   10.2540    4.7190 C.3   262  PRO262      0.0208
    106  CD         9.4260   11.5780    4.1930 C.3   262  PRO262      0.0893
    107  N         13.9020   11.2110    5.1000 N.am  263  GLY263     -0.1943
    108  CA        15.0530   10.7020    4.3340 C.3   263  GLY263      0.2014
    109  C         16.3700   11.4710    4.4120 C.2   263  GLY263      0.2638
    110  O         17.4200   10.9220    4.0450 O.2   263  GLY263     -0.2714
    111  N         16.3180   12.7130    4.8810 N.am  264  VAL264     -0.1977
    112  CA        17.5470   13.5030    5.0920 C.3   264  VAL264      0.1596
    113  C         18.2730   12.9860    6.3260 C.2   264  VAL264      0.2287
    114  O         17.6480   12.7190    7.3590 O.2   264  VAL264     -0.2864
    115  CB        17.2080   14.9690    5.2300 C.3   264  VAL264      0.0276
    116  CG1       18.4250   15.7810    5.7310 C.3   264  VAL264      0.0022
    117  CG2       16.6460   15.4940    3.8760 C.3   264  VAL264      0.0022
    118  N         20.1650   10.1860    8.0990 N.3   266  ALA266     -0.1231
    119  CA        20.6100    8.7710    8.1520 C.3   266  ALA266      0.1694
    120  C         20.4800    8.1090    6.7790 C.2   266  ALA266      0.2591
    121  O         21.2880    7.2310    6.4120 O.2   266  ALA266     -0.2718
    122  CB        19.8160    7.9800    9.1950 C.3   266  ALA266      0.0304
    123  N         19.4380    8.4830    6.0290 N.am  267  GLN267     -0.1979
    124  CA        19.1720    7.8730    4.7450 C.3   267  GLN267      0.1601
    125  C         19.7640    8.6110    3.5720 C.2   267  GLN267      0.2287
    126  O         19.5430    8.2310    2.4100 O.2   267  GLN267     -0.2864
    127  CB        17.6810    7.6370    4.5250 C.3   267  GLN267      0.0394
    128  CG        17.0860    6.6240    5.5370 C.3   267  GLN267      0.0908
    129  CD        15.5960    6.5250    5.3310 C.2   267  GLN267      0.2608
    130  OE1       15.1560    5.8900    4.3650 O.2   267  GLN267     -0.2717
    131  NE2       14.8040    7.1690    6.2340 N.am  267  GLN267     -0.0878
    132  N         11.5950   15.9980    7.4330 N.3   289  ASN289     -0.1225
    133  CA        11.7460   15.2260    8.6340 C.3   289  ASN289      0.1785
    134  C         13.1970   14.7800    8.8060 C.2   289  ASN289      0.2597
    135  O         13.7810   14.1980    7.8870 O.2   289  ASN289     -0.2718
    136  CB        10.8510   13.9760    8.6010 C.3   289  ASN289      0.1169
    137  CG        11.0240   13.1540    9.8020 C.2   289  ASN289      0.2627
    138  OD1       11.7000   12.0930    9.7490 O.2   289  ASN289     -0.2716
    139  ND2       10.4870   13.6020   10.9130 N.am  289  ASN289     -0.0877
    140  N         13.7610   15.0300    9.9900 N.am  290  VAL290     -0.1966
    141  CA        15.0880   14.5210   10.3100 C.3   290  VAL290      0.1727
    142  C         15.0400   13.8550   11.6740 C.2   290  VAL290      0.2617
    143  O         14.7210   14.5000   12.6560 O.2   290  VAL290     -0.2715
    144  CB        16.1760   15.6420   10.3160 C.3   290  VAL290      0.0290
    145  CG1       17.5180   15.0250   10.7370 C.3   290  VAL290      0.0023
    146  CG2       16.2960   16.3170    8.9230 C.3   290  VAL290      0.0023
    147  N         15.2880   12.5350   11.7000 N.am  291  GLY291     -0.1940
    148  CA        15.2140   11.7490   12.9430 C.3   291  GLY291      0.2014
    149  C         16.5990   11.4660   13.4830 C.2   291  GLY291      0.2639
    150  O         17.1650   12.2890   14.2130 O.2   291  GLY291     -0.2714
    151  N         17.1680   10.3430   13.0660 N.am  292  ARG292     -0.1963
    152  CA        18.4340    9.8430   13.6280 C.3   292  ARG292      0.1729
    153  C         19.5970   10.8240   13.5270 C.2   292  ARG292      0.2616
    154  O         20.4290   10.8850   14.4350 O.2   292  ARG292     -0.2715
    155  CB        18.8210    8.5310   12.9750 C.3   292  ARG292      0.0348
    156  CG        17.9430    7.3590   13.4800 C.3   292  ARG292      0.0492
    157  CD        18.0910    6.1280   12.6010 C.3   292  ARG292      0.2205
    158  NE        17.5110    6.2470   11.2580 N.pl3 292  ARG292     -0.0865
    159  CZ        17.6520    5.3370   10.2970 C.cat 292  ARG292      0.5346
    160  NH1       18.3340    4.1990   10.5270 N.pl3 292  ARG292      0.1354
    161  NH2       17.0700    5.5150    9.1210 N.pl3 292  ARG292      0.1354
    162  N         19.6500   11.5850   12.4470 N.am  293  ALA293     -0.1977
    163  CA        20.7330   12.5840   12.3300 C.3   293  ALA293      0.1597
    164  C         20.6820   13.6170   13.4440 C.2   293  ALA293      0.2287
    165  O         21.7010   14.2700   13.7290 O.2   293  ALA293     -0.2864
    166  CB        20.7820   13.2150   10.9670 C.3   293  ALA293      0.0319
@<TRIPOS>BOND
     1    69    70    1
     2    69    68    1
     3    68    67    1
     4    67    66    1
     5    66    63    1
     6    63    62    1
     7    63    64    1
     8    88    87    2
     9    64    71   am
    10    64    65    2
    11    74    73    2
    12    71    72    1
    13    57    56    2
    14    87    86    1
    15    92    90   am
    16    73    72    1
    17    73    78   am
    18    76    75    1
    19    56    55    1
    20    72    75    1
    21    96    95    2
    22    81    80    2
    23    90    91    2
    24    90    89    1
    25    80    85   am
    26    80    79    1
    27    75    77    1
    28    86    85    1
    29    86    89    1
    30    79    78    1
    31    79    82    1
    32    95    94    1
    33    55    58    1
    34    55    54    1
    35    93    94    1
    36    58    59    1
    37    94    97    1
    38    82    84    1
    39    82    83    1
    40   126   125    2
    41    97    98    1
    42    97    99    1
    43    59    61    1
    44    59    60    1
    45   103   102    2
    46   125   124    1
    47   117   115    1
    48   110   109    2
    49   106   100    1
    50   106   105    1
    51   108   109    1
    52   108   107    1
    53   130   129    2
    54   109   111   am
    55   102   107   am
    56   102   101    1
    57   100   101    1
    58   127   124    1
    59   127   128    1
    60   105   104    1
    61   124   123    1
    62   111   112    1
    63   112   115    1
    64   112   113    1
    65   115   116    1
    66   101   104    1
    67   129   128    1
    68   129   131   am
    69   123   120   am
    70   113   114    2
    71   121   120    2
    72   120   119    1
    73    48    47    2
    74   132   133    1
    75    49    50    1
    76    49    46    1
    77    50    51    1
    78   135   134    2
    79    47    46    1
    80    46    45    1
    81   118   119    1
    82   119   122    1
    83   136   133    1
    84   136   137    1
    85   133   134    1
    86   134   140   am
    87   146   144    1
    88    51    52    1
    89    43    42   ar
    90   161   159    1
    91    44    42   ar
    92    52    53    1
    93   138   137    2
    94    42    41    1
    95   137   139   am
    96    16    15    1
    97    16    17    1
    98   140   141    1
    99    15    14    1
   100   159   160    1
   101   159   158    2
   102   141   144    1
   103   141   142    1
   104   144   145    1
   105   166   163    1
   106    41    38    1
   107   158   157    1
   108    25    23   am
   109    38    39    1
   110    38    37    1
   111   142   147   am
   112   142   143    2
   113   147   148    1
   114    14    13    1
   115    39    40    2
   116   163   162    1
   117   163   164    1
   118   162   153   am
   119    13    10    1
   120   157   156    1
   121    23    24    2
   122    23    22    1
   123   148   149    1
   124   155   156    1
   125   155   152    1
   126   151   149   am
   127   151   152    1
   128     8     6   ar
   129   164   165    2
   130   149   150    2
   131   153   152    1
   132   153   154    2
   133    22    19    1
   134    10     9    1
   135    10    11    1
   136    35    36   ar
   137    35    33   ar
   138    36    34   ar
   139    19    18    1
   140    19    20    1
   141     6     7   ar
   142     6     5    1
   143    11    12    2
   144    20    21    2
   145     5     2    1
   146    33    31   ar
   147    34    32   ar
   148    31    32   ar
   149    31    30    1
   150     2     1    1
   151     2     3    1
   152    26    27    1
   153     4     3    2
   154    30    27    1
   155    27    28    1
   156    28    29    2
