@<TRIPOS>MOLECULE
tmp/2ffdB00.pdb
 127 121 0 0 0
SMALL
GASTEIGER

@<TRIPOS>ATOM
      1  N         32.6740   31.8760    1.5930 N.3   204  LEU204     -0.1245
      2  CA        31.8610   32.7240    0.7240 C.3   204  LEU204      0.1561
      3  C         32.5160   34.0900    0.5270 C.2   204  LEU204      0.2260
      4  O         33.5500   34.3830    1.1430 O.2   204  LEU204     -0.2867
      5  CB        30.4490   32.8820    1.2770 C.3   204  LEU204      0.0270
      6  CG        29.5950   31.6210    1.3910 C.3   204  LEU204      0.0019
      7  CD1       28.3630   31.9200    2.2210 C.3   204  LEU204      0.0001
      8  CD2       29.2020   31.0630    0.0240 C.3   204  LEU204      0.0001
      9  N         29.0420   40.1510   -0.3240 N.3   207  GLU207     -0.1231
     10  CA        27.6550   40.2040    0.1520 C.3   207  GLU207      0.1699
     11  C         27.0760   38.8190    0.4700 C.2   207  GLU207      0.2592
     12  O         26.1840   38.6890    1.3190 O.2   207  GLU207     -0.2718
     13  CB        26.7650   40.9020   -0.8690 C.3   207  GLU207      0.0402
     14  CG        25.4200   41.3200   -0.2990 C.3   207  GLU207      0.1161
     15  CD        24.2650   41.0740   -1.2560 C.2   207  GLU207      0.3649
     16  OE1       24.4940   40.4930   -2.3460 O.co2 207  GLU207     -0.2457
     17  OE2       23.1210   41.4580   -0.9070 O.co2 207  GLU207     -0.2457
     18  N         27.5750   37.7990   -0.2330 N.am  208  ASN208     -0.1974
     19  CA        27.2030   36.4030    0.0130 C.3   208  ASN208      0.1688
     20  C         27.6230   35.9590    1.4270 C.2   208  ASN208      0.2292
     21  O         26.8210   35.3850    2.1610 O.2   208  ASN208     -0.2864
     22  CB        27.7960   35.4720   -1.0710 C.3   208  ASN208      0.1181
     23  CG        26.9610   35.4340   -2.3670 C.2   208  ASN208      0.2629
     24  OD1       25.7470   35.2350   -2.3360 O.2   208  ASN208     -0.2716
     25  ND2       27.6270   35.5890   -3.5090 N.am  208  ASN208     -0.0877
     26  N         25.6370   37.8530    4.4390 N.3   211  MET211     -0.1230
     27  CA        24.3030   37.3750    4.7760 C.3   211  MET211      0.1702
     28  C         24.3070   36.0950    5.6320 C.2   211  MET211      0.2593
     29  O         23.2480   35.5130    5.8930 O.2   211  MET211     -0.2718
     30  CB        23.4550   37.1950    3.5130 C.3   211  MET211      0.0401
     31  CG        24.0420   36.2570    2.4650 C.3   211  MET211      0.0596
     32  SD        22.8140   35.7400    1.2530 S.3   211  MET211     -0.1393
     33  CE        22.5160   37.2610    0.3570 C.3   211  MET211      0.0692
     34  N         25.4900   35.6660    6.0700 N.am  212  THR212     -0.1953
     35  CA        25.6120   34.4970    6.9510 C.3   212  THR212      0.1897
     36  C         26.1850   34.8520    8.3190 C.2   212  THR212      0.2313
     37  O         26.5740   33.9670    9.0740 O.2   212  THR212     -0.2863
     38  CB        26.4830   33.3650    6.3400 C.3   212  THR212      0.1794
     39  OG1       27.8340   33.8210    6.1700 O.3   212  THR212     -0.2208
     40  CG2       25.9090   32.8750    5.0120 C.3   212  THR212      0.0378
     41  N         15.9220   37.3240    5.9260 N.3   229  TRP229     -0.1241
     42  CA        15.5290   36.8000    4.6170 C.3   229  TRP229      0.1605
     43  C         14.0970   37.2530    4.3440 C.2   229  TRP229      0.2264
     44  O         13.1310   36.6080    4.7710 O.2   229  TRP229     -0.2867
     45  CB        15.6700   35.2620    4.5830 C.3   229  TRP229      0.0550
     46  CG        15.5450   34.5840    3.2000 C.ar  229  TRP229      0.0003
     47  CD1       15.7640   35.1570    1.9760 C.ar  229  TRP229      0.0946
     48  CD2       15.2160   33.2010    2.9340 C.ar  229  TRP229      0.0152
     49  NE1       15.5720   34.2330    0.9720 N.ar  229  TRP229     -0.2442
     50  CE2       15.2390   33.0270    1.5290 C.ar  229  TRP229      0.0810
     51  CE3       14.8970   32.0990    3.7460 C.ar  229  TRP229      0.0012
     52  CZ2       14.9470   31.7980    0.9150 C.ar  229  TRP229      0.0191
     53  CZ3       14.6120   30.8710    3.1320 C.ar  229  TRP229      0.0001
     54  CH2       14.6360   30.7370    1.7310 C.ar  229  TRP229      0.0015
     55  N         13.5260   25.6490    6.6800 N.3   241  GLU241     -0.1231
     56  CA        14.4170   24.9690    5.7430 C.3   241  GLU241      0.1699
     57  C         15.6470   24.3110    6.3790 C.2   241  GLU241      0.2592
     58  O         16.0170   23.1970    5.9890 O.2   241  GLU241     -0.2718
     59  CB        14.8310   25.9060    4.6020 C.3   241  GLU241      0.0402
     60  CG        13.6700   26.3190    3.6900 C.3   241  GLU241      0.1161
     61  CD        14.1160   27.0030    2.4030 C.2   241  GLU241      0.3649
     62  OE1       15.1850   27.6500    2.3820 O.co2 241  GLU241     -0.2457
     63  OE2       13.3770   26.8920    1.4040 O.co2 241  GLU241     -0.2457
     64  N         16.2780   24.9890    7.3410 N.am  242  ASP242     -0.1974
     65  CA        17.4900   24.4590    7.9950 C.3   242  ASP242      0.1709
     66  C         17.2120   23.6390    9.2650 C.2   242  ASP242      0.2293
     67  O         18.1480   23.1530    9.9060 O.2   242  ASP242     -0.2864
     68  CB        18.5070   25.5750    8.2740 C.3   242  ASP242      0.1436
     69  CG        19.0170   26.2500    7.0000 C.2   242  ASP242      0.3671
     70  OD1       18.5680   25.8800    5.8880 O.co2 242  ASP242     -0.2456
     71  OD2       19.8750   27.1590    7.1130 O.co2 242  ASP242     -0.2456
     72  N         20.5670   34.7150    6.7830 N.3   250  ARG250     -0.1231
     73  CA        20.0730   34.4510    5.4360 C.3   250  ARG250      0.1694
     74  C         20.9790   33.4460    4.6800 C.2   250  ARG250      0.2592
     75  O         21.5680   33.7980    3.6520 O.2   250  ARG250     -0.2718
     76  CB        19.9710   35.7780    4.6690 C.3   250  ARG250      0.0321
     77  CG        19.1890   35.7210    3.3640 C.3   250  ARG250      0.0489
     78  CD        19.4930   36.9470    2.5050 C.3   250  ARG250      0.2205
     79  NE        19.2170   36.7050    1.0870 N.pl3 250  ARG250     -0.0865
     80  CZ        18.1140   37.0910    0.4500 C.cat 250  ARG250      0.5346
     81  NH1       17.1560   37.7570    1.0870 N.pl3 250  ARG250      0.1354
     82  NH2       17.9720   36.8110   -0.8370 N.pl3 250  ARG250      0.1354
     83  N         21.1100   32.2070    5.1720 N.am  251  CYS251     -0.1956
     84  CA        20.5000   31.7460    6.4190 C.3   251  CYS251      0.1843
     85  C         21.5100   31.5300    7.5400 C.2   251  CYS251      0.2625
     86  O         21.2500   31.9390    8.6750 O.2   251  CYS251     -0.2714
     87  CB        19.6950   30.4760    6.1970 C.3   251  CYS251      0.0997
     88  SG        18.1530   30.7670    5.3640 S.3   251  CYS251     -0.0797
     89  N         22.6470   30.8950    7.2380 N.am  252  HIS252     -0.1973
     90  CA        23.6430   30.5990    8.2780 C.3   252  HIS252      0.1656
     91  C         25.0680   30.3060    7.8050 C.2   252  HIS252      0.2291
     92  O         25.2830   29.8120    6.7020 O.2   252  HIS252     -0.2864
     93  CB        23.1640   29.4440    9.1750 C.3   252  HIS252      0.0771
     94  CG        23.4150   28.0800    8.6080 C.ar  252  HIS252      0.0820
     95  ND1       22.4140   27.3060    8.0590 N.ar  252  HIS252     -0.2267
     96  CD2       24.5510   27.3460    8.5180 C.ar  252  HIS252      0.1154
     97  CE1       22.9230   26.1570    7.6500 C.ar  252  HIS252      0.1986
     98  NE2       24.2180   26.1570    7.9140 N.ar  252  HIS252     -0.2212
     99  N         18.2600   22.2520    1.3740 N.3   275  THR275     -0.1203
    100  CA        19.1800   23.1660    2.0360 C.3   275  THR275      0.1994
    101  C         20.0380   22.4010    3.0430 C.2   275  THR275      0.2617
    102  O         19.6520   21.3320    3.5120 O.2   275  THR275     -0.2717
    103  CB        18.4450   24.3080    2.7430 C.3   275  THR275      0.1784
    104  OG1       17.7910   23.8010    3.9160 O.3   275  THR275     -0.2211
    105  CG2       17.4300   24.9650    1.7970 C.3   275  THR275      0.0376
    106  N         21.1980   22.9650    3.3590 N.am  276  ASP276     -0.1973
    107  CA        22.1630   22.3500    4.2590 C.3   276  ASP276      0.1709
    108  C         21.7790   22.5270    5.7380 C.2   276  ASP276      0.2293
    109  O         22.4280   23.2730    6.4840 O.2   276  ASP276     -0.2864
    110  CB        23.5590   22.9200    3.9810 C.3   276  ASP276      0.1436
    111  CG        23.6030   24.4430    4.0740 C.2   276  ASP276      0.3671
    112  OD1       22.6560   25.1130    3.6040 O.co2 276  ASP276     -0.2456
    113  OD2       24.5910   24.9700    4.6260 O.co2 276  ASP276     -0.2456
    114  N         30.4290   25.8210    8.7730 N.3   282  MET282     -0.1245
    115  CA        31.0940   25.9780    7.4790 C.3   282  MET282      0.1570
    116  C         32.5740   26.3340    7.5830 C.2   282  MET282      0.2261
    117  O         33.3970   25.7830    6.8590 O.2   282  MET282     -0.2867
    118  CB        30.3420   26.9710    6.6030 C.3   282  MET282      0.0387
    119  CG        28.9790   26.4620    6.2000 C.3   282  MET282      0.0595
    120  SD        27.9920   27.6430    5.2800 S.3   282  MET282     -0.1393
    121  CE        28.8600   27.6590    3.7140 C.3   282  MET282      0.0692
    122  N         29.8080   23.1500    4.2620 N.3   287  SER287     -0.1217
    123  CA        28.3630   23.1430    4.3850 C.3   287  SER287      0.1889
    124  C         27.7190   21.7420    4.4700 C.2   287  SER287      0.2288
    125  O         26.5680   21.6190    4.8800 O.2   287  SER287     -0.2866
    126  CB        27.7930   23.9200    3.1940 C.3   287  SER287      0.2089
    127  OG        26.5110   24.4350    3.4640 O.3   287  SER287     -0.2183
@<TRIPOS>BOND
     1    25    23   am
     2    23    24    2
     3    23    22    1
     4    16    15   ar
     5    15    17   ar
     6    15    14    1
     7    22    19    1
     8    13    14    1
     9    13    10    1
    10    82    80    1
    11     9    10    1
    12    18    19    1
    13    18    11   am
    14    19    20    1
    15     8     6    1
    16    10    11    1
    17    33    32    1
    18    80    79    2
    19    80    81    1
    20    11    12    2
    21     3     2    1
    22     3     4    2
    23     2     5    1
    24     2     1    1
    25    52    50   ar
    26    52    54   ar
    27    49    50   ar
    28    49    47   ar
    29    79    78    1
    30    32    31    1
    31     5     6    1
    32    99   100    1
    33     6     7    1
    34    63    61   ar
    35    20    21    2
    36    50    48   ar
    37    54    53   ar
    38   105   103    1
    39    47    46   ar
    40   100   103    1
    41   100   101    1
    42    62    61   ar
    43    61    60    1
    44    31    30    1
    45    78    77    1
    46   103   104    1
    47    48    46   ar
    48    48    51   ar
    49   101   106   am
    50   101   102    2
    51    53    51   ar
    52   126   127    1
    53   126   123    1
    54    46    45    1
    55   106   107    1
    56    77    76    1
    57    30    27    1
    58   112   111   ar
    59    75    74    2
    60    60    59    1
    61   121   120    1
    62   110   111    1
    63   110   107    1
    64   111   113   ar
    65   107   108    1
    66   122   123    1
    67    43    42    1
    68    43    44    2
    69   123   124    1
    70    26    27    1
    71   124   125    2
    72    45    42    1
    73    59    56    1
    74    42    41    1
    75    76    73    1
    76    74    83   am
    77    74    73    1
    78    27    28    1
    79    40    38    1
    80    83    84    1
    81   120   119    1
    82    88    87    1
    83    73    72    1
    84    28    29    2
    85    28    34   am
    86   108   109    2
    87    56    57    1
    88    56    55    1
    89    70    69   ar
    90    58    57    2
    91    34    35    1
    92    39    38    1
    93    87    84    1
    94   119   118    1
    95    38    35    1
    96    57    64   am
    97    84    85    1
    98   118   115    1
    99    92    91    2
   100   117   116    2
   101    35    36    1
   102    69    71   ar
   103    69    68    1
   104    89    85   am
   105    89    90    1
   106    64    65    1
   107   115   116    1
   108   115   114    1
   109    85    86    2
   110    97    98   ar
   111    97    95   ar
   112    91    90    1
   113    98    96   ar
   114    65    68    1
   115    65    66    1
   116    95    94   ar
   117    90    93    1
   118    36    37    2
   119    96    94   ar
   120    94    93    1
   121    66    67    2
