@<TRIPOS>MOLECULE
tmp/2ffrA01.pdb
 161 154 0 0 0
SMALL
GASTEIGER

@<TRIPOS>ATOM
      1  N         28.9340   23.7400   30.1860 N.3   124  GLY124     -0.1210
      2  CA        29.1230   22.4550   29.5390 C.3   124  GLY124      0.1956
      3  C         29.8910   21.3880   30.2860 C.2   124  GLY124      0.2611
      4  O         29.4770   20.2310   30.3230 O.2   124  GLY124     -0.2717
      5  N         31.0110   21.7680   30.8840 N.am  125  LEU125     -0.1979
      6  CA        31.8370   20.8130   31.6060 C.3   125  LEU125      0.1596
      7  C         31.0870   20.2370   32.8050 C.2   125  LEU125      0.2287
      8  O         31.1230   19.0310   33.0410 O.2   125  LEU125     -0.2864
      9  CB        33.1500   21.4900   32.0330 C.3   125  LEU125      0.0297
     10  CG        34.1630   20.6800   32.8520 C.3   125  LEU125      0.0022
     11  CD1       35.5510   21.3400   32.7680 C.3   125  LEU125      0.0001
     12  CD2       33.6990   20.6040   34.2970 C.3   125  LEU125      0.0001
     13  N         28.1160   18.0210   31.6550 N.3   128  LEU128     -0.1245
     14  CA        28.6030   16.7580   31.1170 C.3   128  LEU128      0.1561
     15  C         28.7720   15.7400   32.2430 C.2   128  LEU128      0.2260
     16  O         28.4180   14.5730   32.0950 O.2   128  LEU128     -0.2867
     17  CB        29.9400   16.9550   30.3970 C.3   128  LEU128      0.0270
     18  CG        30.4140   15.6990   29.6530 C.3   128  LEU128      0.0019
     19  CD1       29.5710   15.5130   28.3930 C.3   128  LEU128      0.0001
     20  CD2       31.8920   15.8190   29.2860 C.3   128  LEU128      0.0001
     21  N         34.0830   30.2590   32.9780 N.3   266  ASP266     -0.1225
     22  CA        33.8430   29.2520   31.9610 C.3   266  ASP266      0.1805
     23  C         35.0020   29.4090   30.9800 C.2   266  ASP266      0.2598
     24  O         35.1700   30.4710   30.3830 O.2   266  ASP266     -0.2718
     25  CB        32.5120   29.5030   31.2410 C.3   266  ASP266      0.1424
     26  CG        32.1120   28.3440   30.3270 C.2   266  ASP266      0.3668
     27  OD1       31.5450   27.3430   30.8300 O.co2 266  ASP266     -0.2456
     28  OD2       32.3750   28.4310   29.1050 O.co2 266  ASP266     -0.2456
     29  N         35.8120   28.3660   30.8330 N.am  267  ASN267     -0.1960
     30  CA        36.9440   28.4110   29.9150 C.3   267  ASN267      0.1819
     31  C         37.9050   29.5580   30.2090 C.2   267  ASN267      0.2621
     32  O         38.3140   30.2900   29.3100 O.2   267  ASN267     -0.2715
     33  CB        36.4450   28.5020   28.4650 C.3   267  ASN267      0.1195
     34  CG        36.1620   27.1350   27.8670 C.2   267  ASN267      0.2630
     35  OD1       37.0820   26.4250   27.4550 O.2   267  ASN267     -0.2716
     36  ND2       34.8900   26.7490   27.8430 N.am  267  ASN267     -0.0877
     37  N         38.2610   29.7110   31.4780 N.am  268  PHE268     -0.1974
     38  CA        39.1950   30.7530   31.8830 C.3   268  PHE268      0.1639
     39  C         39.8830   30.3570   33.1840 C.2   268  PHE268      0.2290
     40  O         39.2200   30.0050   34.1620 O.2   268  PHE268     -0.2864
     41  CB        38.4790   32.0860   32.0740 C.3   268  PHE268      0.0560
     42  CG        39.4140   33.2270   32.3230 C.ar  268  PHE268     -0.0200
     43  CD1       40.2730   33.6600   31.3200 C.ar  268  PHE268     -0.0042
     44  CD2       39.4750   33.8380   33.5690 C.ar  268  PHE268     -0.0042
     45  CE1       41.1840   34.6820   31.5500 C.ar  268  PHE268     -0.0003
     46  CE2       40.3850   34.8640   33.8150 C.ar  268  PHE268     -0.0003
     47  CZ        41.2430   35.2860   32.8010 C.ar  268  PHE268     -0.0000
     48  N         39.1590   17.0890   33.2470 N.3   313  ASP313     -0.1239
     49  CA        40.0510   18.1900   32.9320 C.3   313  ASP313      0.1674
     50  C         41.2010   18.1030   33.9200 C.2   313  ASP313      0.2266
     51  O         41.4200   17.0420   34.4950 O.2   313  ASP313     -0.2867
     52  CB        39.3500   19.5520   33.0010 C.3   313  ASP313      0.1410
     53  CG        40.0120   20.5690   32.0960 C.2   313  ASP313      0.3668
     54  OD1       41.2230   20.8100   32.2380 O.co2 313  ASP313     -0.2456
     55  OD2       39.3470   21.1020   31.2010 O.co2 313  ASP313     -0.2456
     56  N         41.5320   20.0500   36.6850 N.3   315  HIS315     -0.1241
     57  CA        41.1590   20.5380   38.0120 C.3   315  HIS315      0.1621
     58  C         41.5510   19.5740   39.1410 C.2   315  HIS315      0.2264
     59  O         41.9880   20.0050   40.2030 O.2   315  HIS315     -0.2867
     60  CB        39.6620   20.8440   38.0360 C.3   315  HIS315      0.0745
     61  CG        39.2320   21.7680   36.9390 C.ar  315  HIS315      0.0817
     62  ND1       37.9150   21.9300   36.5730 N.ar  315  HIS315     -0.2268
     63  CD2       39.9510   22.5830   36.1290 C.ar  315  HIS315      0.1154
     64  CE1       37.8390   22.8060   35.5860 C.ar  315  HIS315      0.1986
     65  NE2       39.0610   23.2170   35.2970 N.ar  315  HIS315     -0.2212
     66  N         39.2490   19.3470   27.8600 N.3   351  HIS351     -0.1226
     67  CA        38.0330   20.0150   27.4020 C.3   351  HIS351      0.1752
     68  C         38.2420   21.3630   26.7160 C.2   351  HIS351      0.2596
     69  O         37.2810   22.1120   26.5550 O.2   351  HIS351     -0.2718
     70  CB        37.0830   20.2470   28.5840 C.3   351  HIS351      0.0759
     71  CG        36.6210   18.9970   29.2640 C.ar  351  HIS351      0.0818
     72  ND1       35.4880   18.3130   28.8780 N.ar  351  HIS351     -0.2268
     73  CD2       37.1150   18.3300   30.3350 C.ar  351  HIS351      0.1154
     74  CE1       35.3010   17.2840   29.6840 C.ar  351  HIS351      0.1986
     75  NE2       36.2740   17.2710   30.5790 N.ar  351  HIS351     -0.2212
     76  N         39.4690   21.7020   26.3290 N.am  352  THR352     -0.1953
     77  CA        39.6790   22.9930   25.6750 C.3   352  THR352      0.1897
     78  C         41.0600   23.1730   25.0670 C.2   352  THR352      0.2313
     79  O         41.9930   22.4530   25.4110 O.2   352  THR352     -0.2863
     80  CB        39.4340   24.1600   26.6590 C.3   352  THR352      0.1794
     81  OG1       39.4700   25.4050   25.9450 O.3   352  THR352     -0.2208
     82  CG2       40.4970   24.1680   27.7480 C.3   352  THR352      0.0378
     83  N         42.6790   29.1810   29.2360 N.3   357  ALA357     -0.1245
     84  CA        41.9040   28.2690   30.0770 C.3   357  ALA357      0.1562
     85  C         42.7340   27.1510   30.7210 C.2   357  ALA357      0.2260
     86  O         42.2640   26.4720   31.6390 O.2   357  ALA357     -0.2867
     87  CB        40.7600   27.6590   29.2650 C.3   357  ALA357      0.0290
     88  N         37.1180   15.6180   23.4070 N.3   429  VAL429     -0.1245
     89  CA        35.6770   15.4090   23.5100 C.3   429  VAL429      0.1561
     90  C         34.8370   15.4750   22.2350 C.2   429  VAL429      0.2260
     91  O         33.6090   15.5240   22.2910 O.2   429  VAL429     -0.2867
     92  CB        35.0980   16.3690   24.5730 C.3   429  VAL429      0.0252
     93  CG1       35.6090   15.9520   25.9520 C.3   429  VAL429      0.0019
     94  CG2       35.5260   17.8090   24.2750 C.3   429  VAL429      0.0019
     95  N         31.3830   13.7160   23.0910 N.3   458  ASN458     -0.1240
     96  CA        30.4010   14.0050   24.1310 C.3   458  ASN458      0.1653
     97  C         28.9870   13.5570   23.7580 C.2   458  ASN458      0.2266
     98  O         28.7080   13.1860   22.6170 O.2   458  ASN458     -0.2867
     99  CB        30.3850   15.5110   24.4300 C.3   458  ASN458      0.1155
    100  CG        31.5330   15.9510   25.3430 C.2   458  ASN458      0.2627
    101  OD1       31.7510   17.1520   25.5470 O.2   458  ASN458     -0.2716
    102  ND2       32.2570   14.9880   25.9010 N.am  458  ASN458     -0.0877
    103  N         34.6170   33.7200   22.0920 N.3   547  TYR547     -0.1227
    104  CA        34.7740   32.6450   21.1120 C.3   547  TYR547      0.1736
    105  C         33.4450   32.0490   20.6320 C.2   547  TYR547      0.2595
    106  O         33.3710   31.5080   19.5260 O.2   547  TYR547     -0.2718
    107  CB        35.7280   31.5530   21.6430 C.3   547  TYR547      0.0548
    108  CG        35.1160   30.4220   22.4430 C.ar  547  TYR547     -0.0200
    109  CD1       34.4990   29.3440   21.8060 C.ar  547  TYR547     -0.0009
    110  CD2       35.2060   30.4000   23.8370 C.ar  547  TYR547     -0.0009
    111  CE1       33.9940   28.2710   22.5350 C.ar  547  TYR547      0.0417
    112  CE2       34.7020   29.3310   24.5760 C.ar  547  TYR547      0.0417
    113  CZ        34.1000   28.2700   23.9220 C.ar  547  TYR547      0.1957
    114  OH        33.6100   27.2050   24.6540 O.3   547  TYR547     -0.2866
    115  N         32.3980   32.1730   21.4460 N.am  548  LYS548     -0.1980
    116  CA        31.0770   31.6550   21.0890 C.3   548  LYS548      0.1596
    117  C         30.3700   32.6130   20.1240 C.2   548  LYS548      0.2287
    118  O         29.3300   32.2870   19.5450 O.2   548  LYS548     -0.2864
    119  CB        30.2390   31.4320   22.3530 C.3   548  LYS548      0.0298
    120  CG        30.7700   30.2890   23.2350 C.3   548  LYS548      0.0038
    121  CD        30.0310   30.1890   24.5670 C.3   548  LYS548      0.0206
    122  CE        30.5270   29.0130   25.4210 C.3   548  LYS548      0.1093
    123  NZ        30.1740   27.6780   24.8190 N.3   548  LYS548     -0.1314
    124  N         37.4930   26.4210   18.0850 N.3   645  THR645     -0.1203
    125  CA        37.4620   26.9230   19.4580 C.3   645  THR645      0.1994
    126  C         36.5290   26.1880   20.4260 C.2   645  THR645      0.2618
    127  O         36.8340   26.0920   21.6140 O.2   645  THR645     -0.2717
    128  CB        37.1120   28.4210   19.4740 C.3   645  THR645      0.1784
    129  OG1       35.8060   28.6130   18.9200 O.3   645  THR645     -0.2211
    130  CG2       38.1290   29.2090   18.6400 C.3   645  THR645      0.0376
    131  N         35.3960   25.6800   19.9370 N.am  646  GLU646     -0.1965
    132  CA        34.4570   24.9480   20.7970 C.3   646  GLU646      0.1733
    133  C         34.8680   23.4740   20.7570 C.2   646  GLU646      0.2616
    134  O         34.6170   22.7880   19.7710 O.2   646  GLU646     -0.2715
    135  CB        33.0200   25.1130   20.2750 C.3   646  GLU646      0.0429
    136  CG        31.9070   24.6700   21.2350 C.3   646  GLU646      0.1163
    137  CD        31.7660   25.5750   22.4490 C.2   646  GLU646      0.3649
    138  OE1       32.4350   25.3170   23.4700 O.co2 646  GLU646     -0.2457
    139  OE2       30.9930   26.5550   22.3800 O.co2 646  GLU646     -0.2457
    140  N         35.5020   22.9920   21.8260 N.am  647  ALA647     -0.1963
    141  CA        35.9700   21.6050   21.8720 C.3   647  ALA647      0.1728
    142  C         34.9090   20.6210   21.3770 C.2   647  ALA647      0.2617
    143  O         35.1860   19.7470   20.5470 O.2   647  ALA647     -0.2715
    144  CB        36.4100   21.2420   23.2890 C.3   647  ALA647      0.0334
    145  N         33.6920   20.7640   21.8830 N.am  648  SER648     -0.1936
    146  CA        32.6110   19.8890   21.4610 C.3   648  SER648      0.2055
    147  C         31.2840   20.6110   21.4000 C.2   648  SER648      0.2644
    148  O         30.6780   20.7470   20.3320 O.2   648  SER648     -0.2714
    149  CB        32.4830   18.6980   22.4150 C.3   648  SER648      0.2130
    150  OG        31.3120   17.9460   22.1330 O.3   648  SER648     -0.2179
    151  N         30.8550   21.0940   22.5590 N.am  649  GLY649     -0.1939
    152  CA        29.5680   21.7430   22.6700 C.3   649  GLY649      0.2014
    153  C         28.6070   20.6150   23.0190 C.2   649  GLY649      0.2639
    154  O         28.8250   19.4790   22.6090 O.2   649  GLY649     -0.2714
    155  N         27.5770   20.8940   23.8060 N.am  650  THR650     -0.1950
    156  CA        26.5970   19.8620   24.1420 C.3   650  THR650      0.1897
    157  C         25.1950   20.4320   23.9670 C.2   650  THR650      0.2313
    158  O         24.2360   19.6900   23.7290 O.2   650  THR650     -0.2863
    159  CB        26.7630   19.3160   25.5870 C.3   650  THR650      0.1794
    160  OG1       26.8190   20.4010   26.5180 O.3   650  THR650     -0.2208
    161  CG2       28.0210   18.4680   25.6920 C.3   650  THR650      0.0378
@<TRIPOS>BOND
     1   124   125    1
     2   130   128    1
     3   129   128    1
     4   125   128    1
     5   125   126    1
     6   106   105    2
     7   118   117    2
     8   134   133    2
     9   131   126   am
    10   131   132    1
    11   117   116    1
    12   135   132    1
    13   135   136    1
    14   148   147    2
    15   126   127    2
    16   143   142    2
    17   105   104    1
    18   105   115   am
    19   133   132    1
    20   133   140   am
    21   116   115    1
    22   116   119    1
    23   104   107    1
    24   104   103    1
    25   136   137    1
    26   142   141    1
    27   142   145   am
    28   147   146    1
    29   147   151   am
    30   146   145    1
    31   146   149    1
    32   107   108    1
    33   109   108   ar
    34   109   111   ar
    35   140   141    1
    36   141   144    1
    37   150   149    1
    38    90    91    2
    39    90    89    1
    40   119   120    1
    41   139   137   ar
    42   108   110   ar
    43   137   138   ar
    44   111   113   ar
    45   151   152    1
    46   154   153    2
    47    98    97    2
    48   152   153    1
    49   153   155   am
    50    95    96    1
    51   120   121    1
    52    88    89    1
    53    89    92    1
    54   158   157    2
    55    97    96    1
    56   155   156    1
    57   110   112   ar
    58   113   112   ar
    59   113   114    1
    60   157   156    1
    61    96    99    1
    62   156   159    1
    63    94    92    1
    64    99   100    1
    65   121   122    1
    66    92    93    1
    67   123   122    1
    68    78    79    2
    69    78    77    1
    70   100   101    2
    71   100   102   am
    72   159   161    1
    73   159   160    1
    74    77    76    1
    75    77    80    1
    76    81    80    1
    77    76    68   am
    78    69    68    2
    79    80    82    1
    80    68    67    1
    81    67    66    1
    82    67    70    1
    83    35    34    2
    84    36    34   am
    85    34    33    1
    86    19    18    1
    87    33    30    1
    88    70    71    1
    89    72    71   ar
    90    72    74   ar
    91    28    26   ar
    92    83    84    1
    93    71    73   ar
    94    87    84    1
    95    20    18    1
    96    32    31    2
    97     2     1    1
    98     2     3    1
    99    18    17    1
   100    74    75   ar
   101    30    31    1
   102    30    29    1
   103    84    85    1
   104    31    37   am
   105     3     4    2
   106     3     5   am
   107    26    27   ar
   108    26    25    1
   109    73    75   ar
   110    24    23    2
   111    17    14    1
   112    85    86    2
   113    29    23   am
   114     5     6    1
   115    23    22    1
   116    14    13    1
   117    14    15    1
   118    55    53   ar
   119    25    22    1
   120    43    45   ar
   121    43    42   ar
   122    37    38    1
   123    45    47   ar
   124     6     9    1
   125     6     7    1
   126    38    41    1
   127    38    39    1
   128    22    21    1
   129     9    10    1
   130    41    42    1
   131    16    15    2
   132    53    54   ar
   133    53    52    1
   134    42    44   ar
   135    11    10    1
   136    47    46   ar
   137     7     8    2
   138    10    12    1
   139    49    52    1
   140    49    48    1
   141    49    50    1
   142    39    40    2
   143    44    46   ar
   144    50    51    2
   145    65    64   ar
   146    65    63   ar
   147    64    62   ar
   148    63    61   ar
   149    62    61   ar
   150    56    57    1
   151    61    60    1
   152    57    60    1
   153    57    58    1
   154    58    59    2
