@<TRIPOS>MOLECULE
tmp/2ffuA00.pdb
 191 188 0 0 0
SMALL
GASTEIGER

@<TRIPOS>ATOM
      1  N         -6.4270  -31.3710    4.7500 N.3   179  ILE179     -0.1245
      2  CA        -7.1490  -30.2850    5.4080 C.3   179  ILE179      0.1561
      3  C         -8.3870  -29.8520    4.6280 C.2   179  ILE179      0.2260
      4  O         -8.2870  -29.2130    3.5810 O.2   179  ILE179     -0.2867
      5  CB        -6.2090  -29.0780    5.6240 C.3   179  ILE179      0.0252
      6  CG1       -4.9320  -29.5430    6.3380 C.3   179  ILE179      0.0019
      7  CG2       -6.9070  -28.0180    6.4650 C.3   179  ILE179      0.0019
      8  CD1       -3.8520  -28.4760    6.4500 C.3   179  ILE179      0.0001
      9  N        -12.1160  -27.9200    3.9760 N.3   181  VAL181     -0.1245
     10  CA       -12.4780  -26.5120    4.0290 C.3   181  VAL181      0.1561
     11  C        -13.7520  -26.1700    4.7950 C.2   181  VAL181      0.2260
     12  O        -14.8220  -26.7070    4.5130 O.2   181  VAL181     -0.2867
     13  CB       -12.6360  -25.9390    2.5950 C.3   181  VAL181      0.0252
     14  CG1      -13.0330  -24.4690    2.6570 C.3   181  VAL181      0.0019
     15  CG2      -11.3380  -26.1080    1.8120 C.3   181  VAL181      0.0019
     16  N        -16.5680  -28.7580    3.7650 N.3   190  VAL190     -0.1231
     17  CA       -16.4310  -29.3870    2.4530 C.3   190  VAL190      0.1692
     18  C        -15.0870  -30.0860    2.2740 C.2   190  VAL190      0.2593
     19  O        -14.0400  -29.5510    2.6250 O.2   190  VAL190     -0.2718
     20  CB       -16.6070  -28.3420    1.3260 C.3   190  VAL190      0.0266
     21  CG1      -16.4450  -29.0010   -0.0380 C.3   190  VAL190      0.0020
     22  CG2      -17.9780  -27.6950    1.4400 C.3   190  VAL190      0.0020
     23  N        -15.1290  -31.2830    1.7060 N.am  191  GLY191     -0.1942
     24  CA       -13.9130  -32.0420    1.5040 C.3   191  GLY191      0.2014
     25  C        -12.9420  -31.4650    0.4970 C.2   191  GLY191      0.2639
     26  O        -13.3260  -31.0120   -0.5830 O.2   191  GLY191     -0.2714
     27  N        -11.6670  -31.4860    0.8620 N.am  192  ALA192     -0.1963
     28  CA       -10.6140  -30.9950   -0.0070 C.3   192  ALA192      0.1728
     29  C        -10.2890  -32.0800   -1.0210 C.2   192  ALA192      0.2616
     30  O        -10.5720  -33.2590   -0.7980 O.2   192  ALA192     -0.2715
     31  CB        -9.3650  -30.6730    0.8140 C.3   192  ALA192      0.0334
     32  N         -9.6980  -31.6740   -2.1380 N.am  193  SER193     -0.1950
     33  CA        -9.2860  -32.6190   -3.1640 C.3   193  SER193      0.1924
     34  C         -8.1510  -33.4510   -2.5620 C.2   193  SER193      0.2314
     35  O         -7.3590  -32.9450   -1.7660 O.2   193  SER193     -0.2863
     36  CB        -8.7680  -31.8670   -4.3910 C.3   193  SER193      0.2116
     37  OG        -8.0900  -32.7440   -5.2750 O.3   193  SER193     -0.2180
     38  N         -3.7240  -33.3070   -4.0150 N.3   196  LEU196     -0.1245
     39  CA        -2.8470  -32.1760   -3.7320 C.3   196  LEU196      0.1561
     40  C         -1.6230  -32.4810   -2.8830 C.2   196  LEU196      0.2260
     41  O         -1.5770  -33.4690   -2.1530 O.2   196  LEU196     -0.2867
     42  CB        -3.6370  -31.0670   -3.0320 C.3   196  LEU196      0.0270
     43  CG        -4.9850  -30.6580   -3.6240 C.3   196  LEU196      0.0019
     44  CD1       -5.6400  -29.6270   -2.7130 C.3   196  LEU196      0.0001
     45  CD2       -4.7950  -30.0980   -5.0270 C.3   196  LEU196      0.0001
     46  N          5.9020  -18.4760   -0.6670 N.3   205  VAL205     -0.1231
     47  CA         4.5640  -18.4410   -0.0910 C.3   205  VAL205      0.1692
     48  C          3.9420  -19.8190   -0.2880 C.2   205  VAL205      0.2592
     49  O          3.8590  -20.3120   -1.4140 O.2   205  VAL205     -0.2718
     50  CB         3.6740  -17.3860   -0.7920 C.3   205  VAL205      0.0266
     51  CG1        2.2350  -17.5120   -0.3150 C.3   205  VAL205      0.0020
     52  CG2        4.2010  -15.9950   -0.4990 C.3   205  VAL205      0.0020
     53  N          3.5120  -20.4440    0.8030 N.am  206  PHE206     -0.1962
     54  CA         2.8960  -21.7630    0.7100 C.3   206  PHE206      0.1771
     55  C          1.6800  -21.7680   -0.2130 C.2   206  PHE206      0.2619
     56  O          0.8520  -20.8580   -0.1760 O.2   206  PHE206     -0.2715
     57  CB         2.4490  -22.2530    2.0880 C.3   206  PHE206      0.0574
     58  CG         1.6750  -23.5400    2.0440 C.ar  206  PHE206     -0.0200
     59  CD1        2.3320  -24.7610    1.9610 C.ar  206  PHE206     -0.0042
     60  CD2        0.2830  -23.5280    2.0240 C.ar  206  PHE206     -0.0042
     61  CE1        1.6160  -25.9540    1.8560 C.ar  206  PHE206     -0.0003
     62  CE2       -0.4410  -24.7150    1.9170 C.ar  206  PHE206     -0.0003
     63  CZ         0.2280  -25.9290    1.8320 C.ar  206  PHE206     -0.0000
     64  N          1.5790  -22.8080   -1.0330 N.am  207  LYS207     -0.1963
     65  CA         0.4570  -22.9680   -1.9460 C.3   207  LYS207      0.1728
     66  C          0.2110  -24.4580   -2.1200 C.2   207  LYS207      0.2616
     67  O          1.0490  -25.2770   -1.7470 O.2   207  LYS207     -0.2715
     68  CB         0.7640  -22.3320   -3.3050 C.3   207  LYS207      0.0311
     69  CG         1.9030  -22.9880   -4.0760 C.3   207  LYS207      0.0038
     70  CD         2.2540  -22.1730   -5.3130 C.3   207  LYS207      0.0206
     71  CE         3.4060  -22.7820   -6.0910 C.3   207  LYS207      0.1093
     72  NZ         3.0250  -24.0310   -6.8030 N.3   207  LYS207     -0.1314
     73  N         -0.9450  -24.8080   -2.6680 N.am  208  TRP208     -0.1974
     74  CA        -1.2640  -26.2070   -2.9100 C.3   208  TRP208      0.1640
     75  C         -0.9170  -26.5350   -4.3540 C.2   208  TRP208      0.2290
     76  O         -1.2930  -25.7980   -5.2710 O.2   208  TRP208     -0.2864
     77  CB        -2.7520  -26.4810   -2.6690 C.3   208  TRP208      0.0576
     78  CG        -3.1800  -26.2650   -1.2550 C.ar  208  TRP208      0.0006
     79  CD1       -3.8530  -25.1880   -0.7590 C.ar  208  TRP208      0.0946
     80  CD2       -2.9410  -27.1370   -0.1440 C.ar  208  TRP208      0.0152
     81  NE1       -4.0490  -25.3330    0.5920 N.ar  208  TRP208     -0.2442
     82  CE2       -3.4990  -26.5200    0.9960 C.ar  208  TRP208      0.0810
     83  CE3       -2.3070  -28.3790   -0.0010 C.ar  208  TRP208      0.0012
     84  CZ2       -3.4460  -27.1040    2.2690 C.ar  208  TRP208      0.0191
     85  CZ3       -2.2520  -28.9610    1.2630 C.ar  208  TRP208      0.0001
     86  CH2       -2.8200  -28.3200    2.3820 C.ar  208  TRP208      0.0015
     87  N         -1.0640  -29.3230   -7.5240 N.3   210  TYR210     -0.1241
     88  CA        -1.8680  -30.4450   -7.9910 C.3   210  TYR210      0.1605
     89  C         -0.8940  -31.5010   -8.4980 C.2   210  TYR210      0.2264
     90  O          0.0960  -31.1750   -9.1560 O.2   210  TYR210     -0.2867
     91  CB        -2.7950  -30.0170   -9.1310 C.3   210  TYR210      0.0534
     92  CG        -4.0670  -30.8290   -9.1900 C.ar  210  TYR210     -0.0201
     93  CD1       -5.1900  -30.4480   -8.4560 C.ar  210  TYR210     -0.0009
     94  CD2       -4.1370  -32.0050   -9.9350 C.ar  210  TYR210     -0.0009
     95  CE1       -6.3490  -31.2120   -8.4590 C.ar  210  TYR210      0.0417
     96  CE2       -5.2960  -32.7830   -9.9470 C.ar  210  TYR210      0.0417
     97  CZ        -6.3960  -32.3810   -9.2060 C.ar  210  TYR210      0.1957
     98  OH        -7.5390  -33.1410   -9.2100 O.3   210  TYR210     -0.2866
     99  N          1.2370  -27.6070    5.2050 N.3   233  ALA233     -0.1245
    100  CA         0.5330  -26.3330    5.3340 C.3   233  ALA233      0.1562
    101  C          1.0730  -25.5910    6.5550 C.2   233  ALA233      0.2260
    102  O          1.2210  -24.3690    6.5320 O.2   233  ALA233     -0.2867
    103  CB        -0.9590  -26.5700    5.4690 C.3   233  ALA233      0.0290
    104  N          3.4200  -14.8880   12.8250 N.3   257  TRP257     -0.1241
    105  CA         2.9400  -15.8650   11.8560 C.3   257  TRP257      0.1605
    106  C          3.8040  -15.8090   10.6030 C.2   257  TRP257      0.2264
    107  O          4.4250  -14.7860   10.3180 O.2   257  TRP257     -0.2867
    108  CB         1.4890  -15.5140   11.4850 C.3   257  TRP257      0.0550
    109  CG         0.8820  -16.3330   10.3790 C.ar  257  TRP257      0.0003
    110  CD1        0.0710  -17.4190   10.5170 C.ar  257  TRP257      0.0946
    111  CD2        1.0340  -16.1230    8.9670 C.ar  257  TRP257      0.0152
    112  NE1       -0.2950  -17.9010    9.2810 N.ar  257  TRP257     -0.2442
    113  CE2        0.2850  -17.1260    8.3130 C.ar  257  TRP257      0.0810
    114  CE3        1.7330  -15.1880    8.1930 C.ar  257  TRP257      0.0012
    115  CZ2        0.2110  -17.2210    6.9190 C.ar  257  TRP257      0.0191
    116  CZ3        1.6600  -15.2820    6.8040 C.ar  257  TRP257      0.0001
    117  CH2        0.9050  -16.2940    6.1850 C.ar  257  TRP257      0.0015
    118  N          6.4670  -22.7390    8.7030 N.3   261  ASN261     -0.1240
    119  CA         6.0880  -23.9600    8.0110 C.3   261  ASN261      0.1653
    120  C          7.1360  -24.2730    6.9440 C.2   261  ASN261      0.2266
    121  O          7.4680  -25.4340    6.7030 O.2   261  ASN261     -0.2867
    122  CB         4.6770  -23.8370    7.4030 C.3   261  ASN261      0.1155
    123  CG         4.4910  -22.5930    6.5380 C.2   261  ASN261      0.2627
    124  OD1        5.3420  -21.7110    6.4890 O.2   261  ASN261     -0.2716
    125  ND2        3.3500  -22.5200    5.8590 N.am  261  ASN261     -0.0877
    126  N        -10.6310  -26.8630    8.3680 N.3   285  HIS285     -0.1241
    127  CA        -9.9830  -25.6400    8.8320 C.3   285  HIS285      0.1621
    128  C        -10.6400  -24.4200    8.1970 C.2   285  HIS285      0.2264
    129  O        -10.9640  -24.4320    7.0100 O.2   285  HIS285     -0.2867
    130  CB        -8.4910  -25.6910    8.4650 C.3   285  HIS285      0.0745
    131  CG        -7.7590  -24.3970    8.6620 C.ar  285  HIS285      0.0817
    132  ND1       -7.5320  -23.5080    7.6320 N.ar  285  HIS285     -0.2268
    133  CD2       -7.1970  -23.8470    9.7640 C.ar  285  HIS285      0.1154
    134  CE1       -6.8600  -22.4670    8.0920 C.ar  285  HIS285      0.1986
    135  NE2       -6.6440  -22.6470    9.3820 N.ar  285  HIS285     -0.2212
    136  N        -10.2320  -21.4630    6.4830 N.3   287  PHE287     -0.1227
    137  CA        -9.2520  -20.6830    5.7420 C.3   287  PHE287      0.1736
    138  C         -9.7910  -19.2660    5.5960 C.2   287  PHE287      0.2595
    139  O        -10.9840  -19.0700    5.3610 O.2   287  PHE287     -0.2718
    140  CB        -9.0040  -21.2950    4.3600 C.3   287  PHE287      0.0547
    141  CG        -8.3480  -22.6470    4.4050 C.ar  287  PHE287     -0.0202
    142  CD1       -9.1120  -23.8080    4.5050 C.ar  287  PHE287     -0.0042
    143  CD2       -6.9610  -22.7570    4.3590 C.ar  287  PHE287     -0.0042
    144  CE1       -8.4980  -25.0600    4.5590 C.ar  287  PHE287     -0.0003
    145  CE2       -6.3360  -24.0060    4.4120 C.ar  287  PHE287     -0.0003
    146  CZ        -7.1070  -25.1570    4.5130 C.ar  287  PHE287     -0.0000
    147  N         -8.9040  -18.2880    5.7530 N.am  288  ARG288     -0.1966
    148  CA        -9.2600  -16.8780    5.6540 C.3   288  ARG288      0.1729
    149  C         -8.4340  -16.2140    4.5690 C.2   288  ARG288      0.2616
    150  O         -7.5070  -16.8110    4.0240 O.2   288  ARG288     -0.2715
    151  CB        -8.9850  -16.1600    6.9800 C.3   288  ARG288      0.0348
    152  CG        -9.8980  -16.5580    8.1160 C.3   288  ARG288      0.0492
    153  CD        -9.5880  -15.7750    9.3880 C.3   288  ARG288      0.2205
    154  NE        -8.4110  -16.2690   10.1010 N.pl3 288  ARG288     -0.0865
    155  CZ        -8.2770  -16.2070   11.4220 C.cat 288  ARG288      0.5346
    156  NH1       -9.2460  -15.6770   12.1520 N.pl3 288  ARG288      0.1354
    157  NH2       -7.1900  -16.6790   12.0180 N.pl3 288  ARG288      0.1354
    158  N         -8.7710  -14.9670    4.2640 N.am  289  LYS289     -0.1963
    159  CA        -8.0480  -14.2110    3.2510 C.3   289  LYS289      0.1728
    160  C         -7.1780  -13.1370    3.8950 C.2   289  LYS289      0.2616
    161  O         -6.3010  -12.5680    3.2470 O.2   289  LYS289     -0.2715
    162  CB        -9.0380  -13.5660    2.2810 C.3   289  LYS289      0.0311
    163  CG        -9.6980  -14.5480    1.3270 C.3   289  LYS289      0.0038
    164  CD        -8.7300  -14.9570    0.2340 C.3   289  LYS289      0.0206
    165  CE        -9.4310  -15.7240   -0.8690 C.3   289  LYS289      0.1093
    166  NZ        -8.5300  -15.9000   -2.0400 N.3   289  LYS289     -0.1314
    167  N         -7.4210  -12.8650    5.1710 N.am  290  GLN290     -0.1963
    168  CA        -6.6530  -11.8540    5.8860 C.3   290  GLN290      0.1733
    169  C         -6.5830  -12.1780    7.3750 C.2   290  GLN290      0.2616
    170  O         -7.5290  -12.7200    7.9400 O.2   290  GLN290     -0.2715
    171  CB        -7.3010  -10.4820    5.6750 C.3   290  GLN290      0.0408
    172  CG        -6.4430   -9.3060    6.0930 C.3   290  GLN290      0.0908
    173  CD        -7.0090   -7.9910    5.6000 C.2   290  GLN290      0.2608
    174  OE1       -8.0550   -7.5360    6.0660 O.2   290  GLN290     -0.2717
    175  NE2       -6.3280   -7.3780    4.6380 N.am  290  GLN290     -0.0878
    176  N         -5.4530  -11.8630    8.0050 N.am  291  HIS291     -0.1973
    177  CA        -5.2950  -12.1050    9.4370 C.3   291  HIS291      0.1656
    178  C         -6.0100  -10.9790   10.1800 C.2   291  HIS291      0.2291
    179  O         -5.8780   -9.8080    9.8230 O.2   291  HIS291     -0.2864
    180  CB        -3.8130  -12.1170    9.8200 C.3   291  HIS291      0.0771
    181  CG        -3.0250  -13.2050    9.1570 C.ar  291  HIS291      0.0820
    182  ND1       -3.3110  -14.5410    9.3270 N.ar  291  HIS291     -0.2267
    183  CD2       -1.9550  -13.1510    8.3290 C.ar  291  HIS291      0.1154
    184  CE1       -2.4510  -15.2660    8.6320 C.ar  291  HIS291      0.1986
    185  NE2       -1.6180  -14.4460    8.0180 N.ar  291  HIS291     -0.2212
    186  N          2.5250   -6.9620    8.6970 N.3   299  SER299     -0.1217
    187  CA         2.6030   -8.3510    8.2610 C.3   299  SER299      0.1889
    188  C          3.6470   -8.5610    7.1700 C.2   299  SER299      0.2288
    189  O          4.3280   -9.5860    7.1410 O.2   299  SER299     -0.2866
    190  CB         1.2360   -8.8230    7.7590 C.3   299  SER299      0.2089
    191  OG         0.8180   -8.0690    6.6340 O.3   299  SER299     -0.2183
@<TRIPOS>BOND
     1    96    94   ar
     2    96    97   ar
     3    94    92   ar
     4    98    97    1
     5    97    95   ar
     6    92    91    1
     7    92    93   ar
     8    90    89    2
     9    91    88    1
    10    89    88    1
    11    95    93   ar
    12    88    87    1
    13    72    71    1
    14    71    70    1
    15    70    69    1
    16    37    36    1
    17    76    75    2
    18    45    43    1
    19    36    33    1
    20    75    74    1
    21    69    68    1
    22    38    39    1
    23    39    42    1
    24    39    40    1
    25    43    42    1
    26    43    44    1
    27    68    65    1
    28    33    34    1
    29    33    32    1
    30    74    77    1
    31    74    73    1
    32    40    41    2
    33    77    78    1
    34    73    66   am
    35    34    35    2
    36    32    29   am
    37    66    65    1
    38    66    67    2
    39   166   165    1
    40    65    64    1
    41    49    48    2
    42    78    79   ar
    43    78    80   ar
    44    64    55   am
    45    29    30    2
    46    29    28    1
    47   165   164    1
    48    50    52    1
    49    50    51    1
    50    50    47    1
    51    79    81   ar
    52    46    47    1
    53    26    25    2
    54    48    47    1
    55    48    53   am
    56    55    56    2
    57    55    54    1
    58    80    83   ar
    59    80    82   ar
    60    21    20    1
    61    28    31    1
    62    28    27    1
    63    83    85   ar
    64   164   163    1
    65    25    27   am
    66    25    24    1
    67    81    82   ar
    68    54    53    1
    69    54    57    1
    70    82    84   ar
    71    85    86   ar
    72    20    22    1
    73    20    17    1
    74   163   162    1
    75    24    23    1
    76    23    18   am
    77    15    13    1
    78    63    61   ar
    79    63    62   ar
    80    61    59   ar
    81    62    60   ar
    82    59    58   ar
    83    60    58   ar
    84    58    57    1
    85    84    86   ar
    86    18    17    1
    87    18    19    2
    88   162   159    1
    89    17    16    1
    90    13    14    1
    91    13    10    1
    92   161   160    2
    93   159   160    1
    94   159   158    1
    95     4     3    2
    96   160   167   am
    97     9    10    1
    98   150   149    2
    99    10    11    1
   100   158   149   am
   101   143   141   ar
   102   143   145   ar
   103   140   141    1
   104   140   137    1
   105   141   142   ar
   106   145   146   ar
   107   142   144   ar
   108    12    11    2
   109   146   144   ar
   110   149   148    1
   111     3     2    1
   112   175   173   am
   113     1     2    1
   114   167   168    1
   115    99   100    1
   116   100   103    1
   117   100   101    1
   118   139   138    2
   119     2     5    1
   120   138   137    1
   121   138   147   am
   122   173   174    2
   123   173   172    1
   124     5     6    1
   125     5     7    1
   126   148   147    1
   127   148   151    1
   128   171   168    1
   129   171   172    1
   130   137   136    1
   131   125   123   am
   132   168   169    1
   133   117   116   ar
   134   117   115   ar
   135     6     8    1
   136   124   123    2
   137   102   101    2
   138   123   122    1
   139   191   190    1
   140   121   120    2
   141   116   114   ar
   142   115   113   ar
   143   120   119    1
   144   151   152    1
   145   129   128    2
   146   189   188    2
   147   188   187    1
   148   169   170    2
   149   169   176   am
   150   122   119    1
   151   132   134   ar
   152   132   131   ar
   153   190   187    1
   154   176   177    1
   155   119   118    1
   156   185   183   ar
   157   185   184   ar
   158   134   135   ar
   159   152   153    1
   160   114   111   ar
   161   128   127    1
   162   187   186    1
   163   113   111   ar
   164   113   112   ar
   165   183   181   ar
   166   126   127    1
   167   130   131    1
   168   130   127    1
   169   184   182   ar
   170   131   133   ar
   171   111   109   ar
   172   181   182   ar
   173   181   180    1
   174   112   110   ar
   175   135   133   ar
   176   153   154    1
   177   177   180    1
   178   177   178    1
   179   179   178    2
   180   154   155    2
   181   107   106    2
   182   109   110   ar
   183   109   108    1
   184   106   105    1
   185   155   157    1
   186   155   156    1
   187   108   105    1
   188   105   104    1
