@<TRIPOS>MOLECULE
tmp/2ffyB00.pdb
 103 95 0 0 0
SMALL
GASTEIGER

@<TRIPOS>ATOM
      1  N         77.3140    1.0140   29.5840 N.3    61  SER61      -0.1217
      2  CA        76.0100    1.4950   29.1860 C.3    61  SER61       0.1889
      3  C         75.1240    0.4830   28.4660 C.2    61  SER61       0.2288
      4  O         73.9660    0.8020   28.2760 O.2    61  SER61      -0.2866
      5  CB        76.1380    2.7210   28.2730 C.3    61  SER61       0.2089
      6  OG        76.6850    3.7500   29.0440 O.3    61  SER61      -0.2183
      7  N         71.9080    0.0810   30.2550 N.3    64  LYS64      -0.1245
      8  CA        70.7190    0.8610   29.9960 C.3    64  LYS64       0.1561
      9  C         69.6030    0.0450   29.3220 C.2    64  LYS64       0.2260
     10  O         68.4430    0.3920   29.4260 O.2    64  LYS64      -0.2867
     11  CB        71.0560    2.0910   29.1590 C.3    64  LYS64       0.0271
     12  CG        71.9280    3.1020   29.8600 C.3    64  LYS64       0.0035
     13  CD        72.3340    4.2530   28.9850 C.3    64  LYS64       0.0206
     14  CE        73.0680    5.3560   29.7360 C.3    64  LYS64       0.1093
     15  NZ        74.4180    4.9750   30.0860 N.3    64  LYS64      -0.1314
     16  N         75.5330   14.5300   30.5540 N.3   116  LEU116     -0.1231
     17  CA        76.0510   13.2220   30.2460 C.3   116  LEU116      0.1693
     18  C         76.4010   12.4530   31.4780 C.2   116  LEU116      0.2591
     19  O         76.0560   11.2860   31.6500 O.2   116  LEU116     -0.2718
     20  CB        77.2580   13.4010   29.3260 C.3   116  LEU116      0.0284
     21  CG        78.0000   12.1110   28.9280 C.3   116  LEU116      0.0019
     22  CD1       77.0450   11.1300   28.2830 C.3   116  LEU116      0.0001
     23  CD2       79.1690   12.5020   28.0120 C.3   116  LEU116      0.0001
     24  N         77.1390   13.0970   32.3950 N.am  117  GLN117     -0.1979
     25  CA        77.5070   12.5180   33.6770 C.3   117  GLN117      0.1601
     26  C         76.8790   13.2750   34.8120 C.2   117  GLN117      0.2287
     27  O         76.7800   14.5130   34.7950 O.2   117  GLN117     -0.2864
     28  CB        79.0190   12.5510   33.8520 C.3   117  GLN117      0.0394
     29  CG        79.8370   11.8440   32.8040 C.3   117  GLN117      0.0908
     30  CD        79.6460   10.3620   32.7420 C.2   117  GLN117      0.2608
     31  OE1       79.1780    9.7470   33.7030 O.2   117  GLN117     -0.2717
     32  NE2       80.0680    9.7570   31.6440 N.am  117  GLN117     -0.0878
     33  N         72.1770   12.2900   24.8680 N.3   147  TYR147     -0.1241
     34  CA        72.4690   11.0470   25.5980 C.3   147  TYR147      0.1605
     35  C         73.0460   11.3860   26.9520 C.2   147  TYR147      0.2264
     36  O         73.9680   12.2000   27.0650 O.2   147  TYR147     -0.2867
     37  CB        73.4260   10.2190   24.7780 C.3   147  TYR147      0.0534
     38  CG        73.8130    8.9160   25.3980 C.ar  147  TYR147     -0.0201
     39  CD1       74.9730    8.7820   26.1160 C.ar  147  TYR147     -0.0009
     40  CD2       73.0270    7.8110   25.2360 C.ar  147  TYR147     -0.0009
     41  CE1       75.3260    7.5660   26.7060 C.ar  147  TYR147      0.0417
     42  CE2       73.3690    6.5960   25.7620 C.ar  147  TYR147      0.0417
     43  CZ        74.5410    6.4700   26.4770 C.ar  147  TYR147      0.1957
     44  OH        74.9400    5.2500   26.9850 O.3   147  TYR147     -0.2866
     45  N         73.6740    9.8180   31.2040 N.3   149  ASN149     -0.1240
     46  CA        73.5050    8.9460   32.3570 C.3   149  ASN149      0.1653
     47  C         72.5310    9.5310   33.3580 C.2   149  ASN149      0.2266
     48  O         71.7850    8.7930   34.0400 O.2   149  ASN149     -0.2867
     49  CB        74.8230    8.6950   33.0580 C.3   149  ASN149      0.1155
     50  CG        75.7670    7.8480   32.3110 C.2   149  ASN149      0.2627
     51  OD1       75.4030    7.0940   31.4210 O.2   149  ASN149     -0.2716
     52  ND2       77.0270    7.8810   32.6980 N.am  149  ASN149     -0.0877
     53  N         85.1070   -0.7330   37.7450 N.3   208  VAL208     -0.1245
     54  CA        84.3040    0.4860   37.7950 C.3   208  VAL208      0.1561
     55  C         84.2210    0.9740   39.2130 C.2   208  VAL208      0.2260
     56  O         84.0430    0.2490   40.1920 O.2   208  VAL208     -0.2867
     57  CB        82.9010    0.2220   37.1530 C.3   208  VAL208      0.0252
     58  CG1       82.0900   -0.7830   37.9310 C.3   208  VAL208      0.0019
     59  CG2       82.1820    1.5360   36.9090 C.3   208  VAL208      0.0019
     60  N         74.9690    2.2590   34.2410 N.3   218  TYR218     -0.1241
     61  CA        76.1320    1.5720   33.7210 C.3   218  TYR218      0.1605
     62  C         76.6270    0.4450   34.5920 C.2   218  TYR218      0.2264
     63  O         77.7880    0.0680   34.4100 O.2   218  TYR218     -0.2867
     64  CB        77.2840    2.5410   33.4140 C.3   218  TYR218      0.0534
     65  CG        77.7060    3.4610   34.5600 C.ar  218  TYR218     -0.0201
     66  CD1       78.6270    3.0230   35.5150 C.ar  218  TYR218     -0.0009
     67  CD2       77.2460    4.7430   34.6390 C.ar  218  TYR218     -0.0009
     68  CE1       79.0230    3.8820   36.5300 C.ar  218  TYR218      0.0417
     69  CE2       77.6200    5.6160   35.6580 C.ar  218  TYR218      0.0417
     70  CZ        78.5150    5.1610   36.6010 C.ar  218  TYR218      0.1957
     71  OH        78.9340    5.9730   37.6320 O.3   218  TYR218     -0.2866
     72  N         77.1880   11.5430   21.2220 N.3   290  LEU290     -0.1245
     73  CA        77.0420   12.3280   22.4240 C.3   290  LEU290      0.1561
     74  C         76.5960   13.7720   22.1470 C.2   290  LEU290      0.2260
     75  O         76.5060   14.5360   23.1160 O.2   290  LEU290     -0.2867
     76  CB        78.3480   12.3130   23.2260 C.3   290  LEU290      0.0270
     77  CG        78.8980   10.9150   23.5920 C.3   290  LEU290      0.0019
     78  CD1       80.1600   11.0080   24.4200 C.3   290  LEU290      0.0001
     79  CD2       77.8060   10.1290   24.3200 C.3   290  LEU290      0.0001
     80  N         80.5570    1.1640   27.7390 N.3   315  ALA315     -0.1231
     81  CA        81.9300    1.2320   28.1860 C.3   315  ALA315      0.1694
     82  C         81.9570    1.5360   29.6880 C.2   315  ALA315      0.2593
     83  O         81.0830    2.2000   30.2110 O.2   315  ALA315     -0.2718
     84  CB        82.7410    2.2680   27.4170 C.3   315  ALA315      0.0304
     85  N         83.0500    1.1230   30.2800 N.am  316  THR316     -0.1939
     86  CA        83.5100    1.5820   31.5650 C.3   316  THR316      0.2028
     87  C         84.9710    1.9790   31.3570 C.2   316  THR316      0.2642
     88  O         85.5220    1.8720   30.2250 O.2   316  THR316     -0.2714
     89  CB        83.3210    0.6310   32.7210 C.3   316  THR316      0.1808
     90  OG1       84.1410   -0.5090   32.3990 O.3   316  THR316     -0.2208
     91  CG2       81.8940    0.2510   32.9320 C.3   316  THR316      0.0379
     92  N         85.6960    2.3470   32.3990 N.am  317  GLY317     -0.1954
     93  CA        87.0720    2.7200   32.1670 C.3   317  GLY317      0.1869
     94  C         87.9190    1.5880   31.5910 C.2   317  GLY317      0.2309
     95  O         88.8460    1.8570   30.8420 O.2   317  GLY317     -0.2863
     96  N         88.5020   -0.7680   26.9930 N.3   340  ASN340     -0.1240
     97  CA        87.6110    0.1610   26.2970 C.3   340  ASN340      0.1653
     98  C         88.2620    0.6000   25.0060 C.2   340  ASN340      0.2266
     99  O         89.1930    1.3820   25.0050 O.2   340  ASN340     -0.2867
    100  CB        87.3190    1.3480   27.1990 C.3   340  ASN340      0.1155
    101  CG        86.4030    2.3860   26.6240 C.2   340  ASN340      0.2627
    102  OD1       85.8050    2.2130   25.5730 O.2   340  ASN340     -0.2716
    103  ND2       86.2470    3.5270   27.2990 N.am  340  ASN340     -0.0877
@<TRIPOS>BOND
     1    72    73    1
     2    74    73    1
     3    74    75    2
     4    73    76    1
     5    76    77    1
     6    77    79    1
     7    77    78    1
     8    37    38    1
     9    37    34    1
    10    33    34    1
    11    99    98    2
    12    98    97    1
    13    40    38   ar
    14    40    42   ar
    15    38    39   ar
    16   102   101    2
    17    34    35    1
    18    42    43   ar
    19    39    41   ar
    20    97    96    1
    21    97   100    1
    22    43    41   ar
    23    43    44    1
    24   101   100    1
    25   101   103   am
    26    35    36    2
    27    84    81    1
    28    80    81    1
    29    23    21    1
    30    81    82    1
    31     5     6    1
    32     5     2    1
    33     4     3    2
    34    22    21    1
    35     3     2    1
    36    21    20    1
    37    13    14    1
    38    13    12    1
    39    11    12    1
    40    11     8    1
    41     2     1    1
    42     9    10    2
    43     9     8    1
    44    20    17    1
    45    82    83    2
    46    82    85   am
    47    14    15    1
    48     8     7    1
    49    88    87    2
    50    17    16    1
    51    17    18    1
    52    85    86    1
    53    95    94    2
    54    45    46    1
    55    87    86    1
    56    87    92   am
    57    51    50    2
    58    18    19    2
    59    18    24   am
    60    86    89    1
    61    94    93    1
    62    32    30   am
    63    93    92    1
    64    50    52   am
    65    50    49    1
    66    46    49    1
    67    46    47    1
    68    24    25    1
    69    90    89    1
    70    89    91    1
    71    30    29    1
    72    30    31    2
    73    29    28    1
    74    47    48    2
    75    64    61    1
    76    64    65    1
    77    25    28    1
    78    25    26    1
    79    61    60    1
    80    61    62    1
    81    63    62    2
    82    65    67   ar
    83    65    66   ar
    84    67    69   ar
    85    27    26    2
    86    66    68   ar
    87    69    70   ar
    88    68    70   ar
    89    70    71    1
    90    59    57    1
    91    57    54    1
    92    57    58    1
    93    53    54    1
    94    54    55    1
    95    55    56    2
