@<TRIPOS>MOLECULE
tmp/2ffyA00.pdb
 95 88 0 0 0
SMALL
GASTEIGER

@<TRIPOS>ATOM
      1  N         27.0700    1.5200   16.1540 N.3    61  SER61      -0.1217
      2  CA        28.4050    1.9470   16.4440 C.3    61  SER61       0.1889
      3  C         29.2400    1.0210   17.3320 C.2    61  SER61       0.2288
      4  O         30.4400    1.2770   17.4420 O.2    61  SER61      -0.2866
      5  CB        28.3920    3.3440   17.0890 C.3    61  SER61       0.2089
      6  OG        27.9510    4.2500   16.1280 O.3    61  SER61      -0.2183
      7  N         32.3970   -0.0230   15.6480 N.3    64  LYS64      -0.1245
      8  CA        33.6360    0.7020   15.7170 C.3    64  LYS64       0.1561
      9  C         34.7170   -0.0420   16.5310 C.2    64  LYS64       0.2260
     10  O         35.8720    0.2110   16.3430 O.2    64  LYS64      -0.2867
     11  CB        33.4330    2.1050   16.2880 C.3    64  LYS64       0.0271
     12  CG        32.5960    3.0170   15.4060 C.3    64  LYS64       0.0035
     13  CD        32.2740    4.3420   16.0550 C.3    64  LYS64       0.0206
     14  CE        31.6160    5.3520   15.1270 C.3    64  LYS64       0.1093
     15  NZ        30.2340    4.9210   14.7630 N.3    64  LYS64      -0.1314
     16  N         29.7570   14.3840   12.1090 N.3   116  LEU116     -0.1231
     17  CA        29.2050   13.1850   12.7330 C.3   116  LEU116      0.1693
     18  C         28.8560   12.1070   11.7120 C.2   116  LEU116      0.2591
     19  O         29.1550   10.9240   11.8250 O.2   116  LEU116     -0.2718
     20  CB        27.9570   13.4110   13.6020 C.3   116  LEU116      0.0284
     21  CG        27.2540   12.2330   14.2660 C.3   116  LEU116      0.0019
     22  CD1       28.1330   11.4850   15.2870 C.3   116  LEU116      0.0001
     23  CD2       25.9900   12.6740   15.0070 C.3   116  LEU116      0.0001
     24  N         28.1420   12.5380   10.6740 N.am  117  GLN117     -0.1979
     25  CA        27.6700   11.6900    9.6170 C.3   117  GLN117      0.1601
     26  C         28.2650   12.0390    8.2580 C.2   117  GLN117      0.2287
     27  O         28.4390   13.2160    7.9270 O.2   117  GLN117     -0.2864
     28  CB        26.1660   11.8200    9.5250 C.3   117  GLN117      0.0394
     29  CG        25.4290   11.3640   10.7860 C.3   117  GLN117      0.0908
     30  CD        24.4960   12.4270   11.3450 C.2   117  GLN117      0.2608
     31  OE1       24.7480   13.6320   11.3610 O.2   117  GLN117     -0.2717
     32  NE2       23.3400   11.9990   11.7630 N.am  117  GLN117     -0.0878
     33  N         32.9550   13.0790   18.4520 N.3   147  TYR147     -0.1241
     34  CA        32.5760   11.7580   17.9780 C.3   147  TYR147      0.1605
     35  C         32.0020   11.8330   16.5770 C.2   147  TYR147      0.2264
     36  O         31.1440   12.6790   16.3100 O.2   147  TYR147     -0.2867
     37  CB        31.5920   11.1600   18.9780 C.3   147  TYR147      0.0534
     38  CG        31.1320    9.7870   18.6360 C.ar  147  TYR147     -0.0201
     39  CD1       29.8780    9.5870   18.0820 C.ar  147  TYR147     -0.0009
     40  CD2       31.8830    8.6650   18.9160 C.ar  147  TYR147     -0.0009
     41  CE1       29.4260    8.3130   17.7720 C.ar  147  TYR147      0.0417
     42  CE2       31.4250    7.4070   18.6280 C.ar  147  TYR147      0.0417
     43  CZ        30.2090    7.2370   18.0380 C.ar  147  TYR147      0.1957
     44  OH        29.7710    5.9440   17.8140 O.3   147  TYR147     -0.2866
     45  N         31.2590    9.4580   12.7370 N.3   149  ASN149     -0.1240
     46  CA        31.3960    8.3490   11.8370 C.3   149  ASN149      0.1653
     47  C         32.3570    8.6090   10.6830 C.2   149  ASN149      0.2266
     48  O         33.0430    7.7070   10.2390 O.2   149  ASN149     -0.2867
     49  CB        30.0620    8.0620   11.1660 C.3   149  ASN149      0.1155
     50  CG        28.9920    7.4410   11.9960 C.2   149  ASN149      0.2627
     51  OD1       29.2930    6.8980   13.0600 O.2   149  ASN149     -0.2716
     52  ND2       27.7680    7.5270   11.5490 N.am  149  ASN149     -0.0877
     53  N         18.9680   -1.1850    8.6630 N.3   208  VAL208     -0.1245
     54  CA        19.9010   -0.1100    8.3200 C.3   208  VAL208      0.1561
     55  C         20.0320    0.0130    6.8140 C.2   208  VAL208      0.2260
     56  O         20.0580   -0.9960    6.1020 O.2   208  VAL208     -0.2867
     57  CB        21.2460   -0.3280    9.0540 C.3   208  VAL208      0.0252
     58  CG1       22.0080   -1.5270    8.5590 C.3   208  VAL208      0.0019
     59  CG2       22.0780    0.9390    8.9960 C.3   208  VAL208      0.0019
     60  N         29.3920    1.5210   11.3060 N.3   218  TYR218     -0.1241
     61  CA        28.1740    1.0920   11.9460 C.3   218  TYR218      0.1605
     62  C         27.5180   -0.1310   11.3630 C.2   218  TYR218      0.2264
     63  O         26.3540   -0.3710   11.6990 O.2   218  TYR218     -0.2867
     64  CB        27.1570    2.2380   12.0280 C.3   218  TYR218      0.0534
     65  CG        26.7640    2.8330   10.6950 C.ar  218  TYR218     -0.0201
     66  CD1       25.8130    2.2870    9.8660 C.ar  218  TYR218     -0.0009
     67  CD2       27.3550    4.0320   10.2620 C.ar  218  TYR218     -0.0009
     68  CE1       25.4630    2.8620    8.6450 C.ar  218  TYR218      0.0417
     69  CE2       27.0160    4.6190    9.0500 C.ar  218  TYR218      0.0417
     70  CZ        26.0810    4.0280    8.2540 C.ar  218  TYR218      0.1957
     71  OH        25.7360    4.6500    7.0560 O.3   218  TYR218     -0.2866
     72  N         23.9060    2.3340   18.0110 N.3   315  ALA315     -0.1231
     73  CA        22.5480    2.3930   17.5760 C.3   315  ALA315      0.1694
     74  C         22.4950    2.4220   16.0550 C.2   315  ALA315      0.2593
     75  O         23.3970    2.8750   15.3880 O.2   315  ALA315     -0.2718
     76  CB        21.9000    3.6880   18.1150 C.3   315  ALA315      0.0304
     77  N         21.3390    1.9670   15.5890 N.am  316  THR316     -0.1939
     78  CA        20.9090    2.2020   14.2240 C.3   316  THR316      0.2028
     79  C         19.5000    2.7670   14.3630 C.2   316  THR316      0.2642
     80  O         19.0030    2.9190   15.5050 O.2   316  THR316     -0.2714
     81  CB        20.9660    1.0000   13.2640 C.3   316  THR316      0.1808
     82  OG1       20.0710    0.0300   13.8110 O.3   316  THR316     -0.2208
     83  CG2       22.3300    0.4380   13.1200 C.3   316  THR316      0.0379
     84  N         18.7770    3.0420   13.2810 N.am  317  GLY317     -0.1954
     85  CA        17.4370    3.5610   13.4430 C.3   317  GLY317      0.1869
     86  C         16.5710    2.6160   14.2450 C.2   317  GLY317      0.2309
     87  O         15.7500    3.1000   15.0220 O.2   317  GLY317     -0.2863
     88  N         16.0750    1.3580   19.3520 N.3   340  ASN340     -0.1240
     89  CA        17.0460    2.3220   19.8210 C.3   340  ASN340      0.1653
     90  C         16.5260    3.1010   21.0220 C.2   340  ASN340      0.2266
     91  O         15.9030    4.1360   20.8260 O.2   340  ASN340     -0.2867
     92  CB        17.4280    3.2540   18.6770 C.3   340  ASN340      0.1155
     93  CG        18.4120    4.3400   19.1040 C.2   340  ASN340      0.2627
     94  OD1       19.0960    4.2670   20.1120 O.2   340  ASN340     -0.2716
     95  ND2       18.5260    5.3190   18.2610 N.am  340  ASN340     -0.0877
@<TRIPOS>BOND
     1    56    55    2
     2    55    54    1
     3    71    70    1
     4    27    26    2
     5    70    68   ar
     6    70    69   ar
     7    26    25    1
     8    54    53    1
     9    54    57    1
    10    58    57    1
    11    68    66   ar
    12    59    57    1
    13    69    67   ar
    14    28    25    1
    15    28    29    1
    16    25    24    1
    17    66    65   ar
    18    48    47    2
    19    67    65   ar
    20    24    18   am
    21    47    46    1
    22    65    64    1
    23    29    30    1
    24    49    46    1
    25    49    50    1
    26    60    61    1
    27    30    31    2
    28    30    32   am
    29    62    63    2
    30    62    61    1
    31    52    50   am
    32    18    19    2
    33    18    17    1
    34    46    45    1
    35    61    64    1
    36    50    51    2
    37    16    17    1
    38    17    20    1
    39    83    81    1
    40    81    82    1
    41    81    78    1
    42    84    85    1
    43    84    79   am
    44    85    86    1
    45    20    21    1
    46    78    79    1
    47    78    77    1
    48    86    87    2
    49    21    23    1
    50    21    22    1
    51    79    80    2
    52    15    14    1
    53    14    13    1
    54    75    74    2
    55    12    13    1
    56    12    11    1
    57    77    74   am
    58     7     8    1
    59     8    11    1
    60     8     9    1
    61    74    73    1
    62     6     5    1
    63     1     2    1
    64    36    35    2
    65    10     9    2
    66     2     5    1
    67     2     3    1
    68    35    34    1
    69     3     4    2
    70    73    72    1
    71    73    76    1
    72    41    43   ar
    73    41    39   ar
    74    44    43    1
    75    34    33    1
    76    34    37    1
    77    43    42   ar
    78    39    38   ar
    79    95    93   am
    80    42    40   ar
    81    38    40   ar
    82    38    37    1
    83    92    93    1
    84    92    89    1
    85    93    94    2
    86    88    89    1
    87    89    90    1
    88    91    90    2
