@<TRIPOS>MOLECULE
tmp/2fg5A00.pdb
 178 174 0 0 0
SMALL
GASTEIGER

@<TRIPOS>ATOM
      1  N         15.2240    0.8790   -4.8610 N.3    12  THR12      -0.1203
      2  CA        15.7520    2.2320   -4.6940 C.3    12  THR12       0.1994
      3  C         15.4130    2.7500   -3.3170 C.2    12  THR12       0.2618
      4  O         14.3720    2.4170   -2.7650 O.2    12  THR12      -0.2717
      5  CB        15.1290    3.1950   -5.7110 C.3    12  THR12       0.1784
      6  OG1       15.2590    2.6350   -7.0050 O.3    12  THR12      -0.2211
      7  CG2       15.8100    4.5630   -5.6890 C.3    12  THR12       0.0376
      8  N         16.2890    3.5620   -2.7550 N.am   13  GLY13      -0.1942
      9  CA        16.0010    4.1910   -1.4940 C.3    13  GLY13       0.2014
     10  C         16.2470    3.3590   -0.2610 C.2    13  GLY13       0.2639
     11  O         16.2110    3.8920    0.8550 O.2    13  GLY13      -0.2714
     12  N         16.5100    2.0620   -0.4290 N.am   14  VAL14      -0.1963
     13  CA        16.7280    1.1840    0.7410 C.3    14  VAL14       0.1727
     14  C         17.9930    1.4830    1.5110 C.2    14  VAL14       0.2617
     15  O         18.0210    1.2670    2.7000 O.2    14  VAL14      -0.2715
     16  CB        16.6250   -0.3310    0.4290 C.3    14  VAL14       0.0290
     17  CG1       15.1760   -0.7140    0.0810 C.3    14  VAL14       0.0023
     18  CG2       17.6150   -0.7450   -0.6690 C.3    14  VAL14       0.0023
     19  N         19.0320    2.0020    0.8410 N.am   15  GLY15      -0.1940
     20  CA        20.2600    2.4330    1.5420 C.3    15  GLY15       0.2014
     21  C         21.5200    1.6980    1.1620 C.2    15  GLY15       0.2639
     22  O         22.5210    1.6800    1.9240 O.2    15  GLY15      -0.2714
     23  N         21.4910    1.0990   -0.0180 N.am   16  LYS16      -0.1963
     24  CA        22.6390    0.3480   -0.5230 C.3    16  LYS16       0.1728
     25  C         23.8970    1.2160   -0.5520 C.2    16  LYS16       0.2617
     26  O         24.9310    0.8260   -0.0250 O.2    16  LYS16      -0.2715
     27  CB        22.3350   -0.1940   -1.9130 C.3    16  LYS16       0.0311
     28  CG        21.1280   -1.1420   -1.9580 C.3    16  LYS16       0.0038
     29  CD        20.8490   -1.6090   -3.3710 C.3    16  LYS16       0.0206
     30  CE        20.5660   -0.4540   -4.3120 C.3    16  LYS16       0.1093
     31  NZ        19.2800    0.2040   -3.9960 N.3    16  LYS16      -0.1314
     32  N         23.7980    2.4050   -1.1390 N.am   17  SER17      -0.1936
     33  CA        24.9280    3.2940   -1.1950 C.3    17  SER17       0.2055
     34  C         25.2970    3.8120    0.1620 C.2    17  SER17       0.2643
     35  O         26.4760    4.0530    0.4310 O.2    17  SER17      -0.2714
     36  CB        24.6470    4.4590   -2.1030 C.3    17  SER17       0.2130
     37  OG        24.2020    3.9790   -3.3610 O.3    17  SER17      -0.2179
     38  N         24.3060    3.9790    1.0350 N.am   18  SER18      -0.1949
     39  CA        24.6030    4.5150    2.3450 C.3    18  SER18       0.1924
     40  C         25.3810    3.5160    3.1330 C.2    18  SER18       0.2314
     41  O         26.3090    3.8750    3.8360 O.2    18  SER18      -0.2863
     42  CB        23.3420    4.9420    3.0620 C.3    18  SER18       0.2116
     43  OG        22.7530    6.0340    2.3810 O.3    18  SER18      -0.2180
     44  N         28.0040    9.4610    6.4130 N.3    28  PHE28      -0.1227
     45  CA        26.6010    9.3930    6.0860 C.3    28  PHE28       0.1736
     46  C         26.0850   10.7360    5.6090 C.2    28  PHE28       0.2595
     47  O         26.2380   11.7450    6.2820 O.2    28  PHE28      -0.2718
     48  CB        25.8010    8.9290    7.2960 C.3    28  PHE28       0.0547
     49  CG        24.3220    8.9270    7.0760 C.ar   28  PHE28      -0.0202
     50  CD1       23.7080    7.8750    6.4010 C.ar   28  PHE28      -0.0042
     51  CD2       23.5280    9.9850    7.5540 C.ar   28  PHE28      -0.0042
     52  CE1       22.3220    7.8630    6.1950 C.ar   28  PHE28      -0.0003
     53  CE2       22.1530    9.9850    7.3620 C.ar   28  PHE28      -0.0003
     54  CZ        21.5400    8.9130    6.6760 C.ar   28  PHE28      -0.0000
     55  N         25.4740   10.7430    4.4370 N.am   29  ASP29      -0.1960
     56  CA        24.8870   11.9410    3.9160 C.3    29  ASP29       0.1840
     57  C         23.3860   11.7160    3.7540 C.2    29  ASP29       0.2622
     58  O         22.9480   10.8830    2.9500 O.2    29  ASP29      -0.2715
     59  CB        25.5400   12.3450    2.5840 C.3    29  ASP29       0.1450
     60  CG        24.9540   13.6410    2.0050 C.2    29  ASP29       0.3671
     61  OD1       24.5520   14.5260    2.7750 O.co2  29  ASP29      -0.2456
     62  OD2       24.8940   13.7750    0.7720 O.co2  29  ASP29      -0.2456
     63  N         22.6060   12.4500    4.5420 N.am   30  HIS30      -0.1973
     64  CA        21.1500   12.4200    4.4470 C.3    30  HIS30       0.1656
     65  C         20.6930   12.7800    3.0170 C.2    30  HIS30       0.2291
     66  O         19.6590   12.3070    2.5490 O.2    30  HIS30      -0.2864
     67  CB        20.5380   13.3700    5.4930 C.3    30  HIS30       0.0771
     68  CG        19.0430   13.4270    5.4640 C.ar   30  HIS30       0.0820
     69  ND1       18.2480   12.5240    6.1420 N.ar   30  HIS30      -0.2267
     70  CD2       18.1910   14.2860    4.8410 C.ar   30  HIS30       0.1154
     71  CE1       16.9720   12.8200    5.9320 C.ar   30  HIS30       0.1986
     72  NE2       16.9110   13.8830    5.1440 N.ar   30  HIS30      -0.2212
     73  N         22.3820   12.1510    0.1210 N.3    32  ILE32      -0.1231
     74  CA        23.0440   11.3240   -0.8740 C.3    32  ILE32       0.1692
     75  C         22.0850   11.1560   -2.0760 C.2    32  ILE32       0.2593
     76  O         20.9140   10.7830   -1.9140 O.2    32  ILE32      -0.2718
     77  CB        23.5290    9.9230   -0.2580 C.3    32  ILE32       0.0266
     78  CG1       24.2740    9.0700   -1.2930 C.3    32  ILE32       0.0019
     79  CG2       22.3760    9.1440    0.3540 C.3    32  ILE32       0.0020
     80  CD1       24.9470    7.8120   -0.7180 C.3    32  ILE32       0.0001
     81  N         22.5710   11.4800   -3.2650 N.am   33  SER33      -0.1939
     82  CA        21.7590   11.3500   -4.4730 C.3    33  SER33       0.2040
     83  C         21.7030    9.8740   -4.9270 C.2    33  SER33       0.2485
     84  O         22.5170    9.0620   -4.4650 O.2    33  SER33      -0.2729
     85  CB        22.2860   12.2950   -5.5800 C.3    33  SER33       0.2129
     86  OG        23.7000   12.3400   -5.5980 O.3    33  SER33      -0.2179
     87  N         20.7140    9.5100   -5.7980 N.am   34  PRO34      -0.2715
     88  CA        20.6480    8.1180   -6.3040 C.3    34  PRO34       0.1536
     89  C         21.8460    7.7510   -7.2000 C.2    34  PRO34       0.2599
     90  O         22.5360    8.6390   -7.7280 O.2    34  PRO34      -0.2715
     91  CB        19.3440    8.0970   -7.1310 C.3    34  PRO34       0.0310
     92  CG        18.5830    9.2980   -6.7030 C.3    34  PRO34       0.0237
     93  CD        19.6050   10.3250   -6.3330 C.3    34  PRO34       0.0939
     94  N         22.0770    6.4510   -7.3510 N.am   35  THR35      -0.1951
     95  CA        23.1620    5.9310   -8.1370 C.3    35  THR35       0.1897
     96  C         22.6840    5.7660   -9.5630 C.2    35  THR35       0.2313
     97  O         21.6050    5.2310   -9.7950 O.2    35  THR35      -0.2863
     98  CB        23.6020    4.5490   -7.5960 C.3    35  THR35       0.1794
     99  OG1       23.7120    4.6100   -6.1770 O.3    35  THR35      -0.2208
    100  CG2       24.9370    4.1190   -8.1630 C.3    35  THR35       0.0378
    101  N         25.0550   -1.2890   -6.9480 N.3    59  THR59      -0.1203
    102  CA        24.2340   -1.0850   -8.1480 C.3    59  THR59       0.1994
    103  C         23.1020   -0.0940   -7.9110 C.2    59  THR59       0.2618
    104  O         22.5980    0.0360   -6.7790 O.2    59  THR59      -0.2717
    105  CB        23.6460   -2.4110   -8.6530 C.3    59  THR59       0.1784
    106  OG1       23.1380   -3.1600   -7.5360 O.3    59  THR59      -0.2211
    107  CG2       24.7170   -3.2330   -9.3660 C.3    59  THR59       0.0376
    108  N         22.7160    0.6120   -8.9780 N.am   60  ALA60      -0.1965
    109  CA        21.5950    1.5470   -8.9300 C.3    60  ALA60       0.1728
    110  C         20.3110    0.7360   -8.7890 C.2    60  ALA60       0.2617
    111  O         20.0860   -0.2160   -9.5480 O.2    60  ALA60      -0.2715
    112  CB        21.5650    2.3890  -10.1740 C.3    60  ALA60       0.0334
    113  N         19.4860    1.0990   -7.8060 N.am   61  GLY61      -0.1940
    114  CA        18.2520    0.3600   -7.5140 C.3    61  GLY61       0.2014
    115  C         17.0870    0.6380   -8.4460 C.2    61  GLY61       0.2638
    116  O         16.2090   -0.2140   -8.6040 O.2    61  GLY61      -0.2714
    117  N         17.0810    1.8310   -9.0610 N.am   62  GLN62      -0.1977
    118  CA        15.9960    2.2670   -9.9740 C.3    62  GLN62       0.1601
    119  C         15.6820    1.2800  -11.1130 C.2    62  GLN62       0.2287
    120  O         16.5930    0.6690  -11.6820 O.2    62  GLN62      -0.2864
    121  CB        16.2310    3.7100  -10.4710 C.3    62  GLN62       0.0394
    122  CG        15.6880    4.7770   -9.4750 C.3    62  GLN62       0.0908
    123  CD        16.2090    6.1940   -9.7160 C.2    62  GLN62       0.2608
    124  OE1       17.3970    6.4810   -9.5320 O.2    62  GLN62      -0.2717
    125  NE2       15.3070    7.0920  -10.0880 N.am   62  GLN62      -0.0878
    126  N         17.8820   -2.5170    6.4900 N.3   116  ASN116     -0.1225
    127  CA        18.3960   -1.1590    6.6930 C.3   116  ASN116      0.1785
    128  C         17.4100   -0.1800    7.3340 C.2   116  ASN116      0.2597
    129  O         16.1930   -0.4380    7.3520 O.2   116  ASN116     -0.2718
    130  CB        18.8980   -0.5950    5.3700 C.3   116  ASN116      0.1169
    131  CG        19.8380    0.5530    5.5630 C.2   116  ASN116      0.2627
    132  OD1       20.6560    0.5570    6.4920 O.2   116  ASN116     -0.2716
    133  ND2       19.7400    1.5450    4.6920 N.am  116  ASN116     -0.0877
    134  N         17.9480    0.9430    7.8480 N.am  117  LYS117     -0.1980
    135  CA        17.1700    2.0410    8.4940 C.3   117  LYS117      0.1596
    136  C         16.5660    1.6290    9.8480 C.2   117  LYS117      0.2287
    137  O         15.4780    2.0970   10.2390 O.2   117  LYS117     -0.2864
    138  CB        16.0720    2.5760    7.5630 C.3   117  LYS117      0.0298
    139  CG        16.5750    3.0440    6.2060 C.3   117  LYS117      0.0038
    140  CD        15.5100    3.7930    5.4470 C.3   117  LYS117      0.0206
    141  CE        15.9190    3.9860    4.0210 C.3   117  LYS117      0.1093
    142  NZ        14.8230    4.5420    3.1980 N.3   117  LYS117     -0.1314
    143  N         17.1830    2.5480   12.6000 N.3   119  ASP119     -0.1225
    144  CA        17.0380    3.7140   13.4770 C.3   119  ASP119      0.1805
    145  C         15.6250    4.3390   13.3430 C.2   119  ASP119      0.2597
    146  O         15.1980    5.1390   14.1950 O.2   119  ASP119     -0.2718
    147  CB        18.1120    4.7600   13.1630 C.3   119  ASP119      0.1424
    148  CG        18.1320    5.1590   11.6950 C.2   119  ASP119      0.3668
    149  OD1       18.6430    4.3880   10.8530 O.co2 119  ASP119     -0.2456
    150  OD2       17.6540    6.2550   11.3820 O.co2 119  ASP119     -0.2456
    151  N         14.9130    3.9750   12.2630 N.am  120  LEU120     -0.1979
    152  CA        13.5390    4.4310   12.0400 C.3   120  LEU120      0.1596
    153  C         12.5580    3.3650   12.5500 C.2   120  LEU120      0.2287
    154  O         11.5580    3.0290   11.8830 O.2   120  LEU120     -0.2864
    155  CB        13.3010    4.7320   10.5470 C.3   120  LEU120      0.0297
    156  CG        14.2280    5.7050    9.7830 C.3   120  LEU120      0.0022
    157  CD1       13.7630    5.8440    8.3440 C.3   120  LEU120      0.0001
    158  CD2       14.3310    7.0960   10.4400 C.3   120  LEU120      0.0001
    159  N         21.8640    0.2540   10.3440 N.3   146  SER146     -0.1202
    160  CA        21.6350    1.6870   10.1570 C.3   146  SER146      0.2020
    161  C         22.9310    2.3230    9.7010 C.2   146  SER146      0.2619
    162  O         23.8850    2.4710   10.5060 O.2   146  SER146     -0.2717
    163  CB        21.1670    2.3820   11.4380 C.3   146  SER146      0.2103
    164  OG        21.2140    3.8080   11.2620 O.3   146  SER146     -0.2182
    165  N         22.9860    2.6850    8.4210 N.am  147  ALA147     -0.1965
    166  CA        24.1410    3.4110    7.8690 C.3   147  ALA147      0.1728
    167  C         24.2650    4.7510    8.5850 C.2   147  ALA147      0.2616
    168  O         25.3740    5.2420    8.8370 O.2   147  ALA147     -0.2715
    169  CB        23.9840    3.6180    6.3860 C.3   147  ALA147      0.0334
    170  N         23.1120    5.3090    8.9470 N.am  148  LYS148     -0.1977
    171  CA        23.0230    6.5900    9.6510 C.3   148  LYS148      0.1596
    172  C         23.7250    6.5860   11.0090 C.2   148  LYS148      0.2287
    173  O         24.5440    7.4640   11.2860 O.2   148  LYS148     -0.2864
    174  CB        21.5640    6.9860    9.8460 C.3   148  LYS148      0.0298
    175  CG        21.4360    8.3640   10.2870 C.3   148  LYS148      0.0038
    176  CD        20.0410    8.7240   10.6910 C.3   148  LYS148      0.0206
    177  CE        19.9460   10.2460   10.8140 C.3   148  LYS148      0.1093
    178  NZ        19.0180   10.6140   11.8630 N.3   148  LYS148     -0.1314
@<TRIPOS>BOND
     1   120   119    2
     2   119   118    1
     3   121   118    1
     4   121   122    1
     5   112   109    1
     6   125   123   am
     7   118   117    1
     8    97    96    2
     9   123   124    2
    10   123   122    1
    11    96    95    1
    12   111   110    2
    13   107   105    1
    14   117   115   am
    15   108   109    1
    16   108   103   am
    17   109   110    1
    18   110   113   am
    19   105   102    1
    20   105   106    1
    21   116   115    2
    22   115   114    1
    23   100    98    1
    24   102   103    1
    25   102   101    1
    26    95    98    1
    27    95    94    1
    28   103   104    2
    29   113   114    1
    30    90    89    2
    31    98    99    1
    32    94    89   am
    33    89    88    1
    34    91    92    1
    35    91    88    1
    36     6     5    1
    37    92    93    1
    38    93    87    1
    39    88    87    1
    40    87    83   am
    41     5     7    1
    42     5     2    1
    43    86    85    1
    44    85    82    1
    45    83    82    1
    46    83    84    2
    47     1     2    1
    48     2     3    1
    49    82    81    1
    50    30    31    1
    51    30    29    1
    52    29    28    1
    53    37    36    1
    54     3     4    2
    55     3     8   am
    56    81    75   am
    57     8     9    1
    58    36    33    1
    59    75    76    2
    60    75    74    1
    61    28    27    1
    62    27    24    1
    63     9    10    1
    64    78    80    1
    65    78    77    1
    66    33    32    1
    67    33    34    1
    68    32    25   am
    69    74    77    1
    70    74    73    1
    71    18    16    1
    72    25    24    1
    73    25    26    2
    74    24    23    1
    75    12    10   am
    76    12    13    1
    77    10    11    2
    78    77    79    1
    79    23    21   am
    80    17    16    1
    81    34    35    2
    82    34    38   am
    83    16    13    1
    84    13    14    1
    85    62    60   ar
    86    19    14   am
    87    19    20    1
    88    38    39    1
    89    21    20    1
    90    21    22    2
    91    14    15    2
    92    60    59    1
    93    60    61   ar
    94    39    42    1
    95    39    40    1
    96    43    42    1
    97    66    65    2
    98    59    56    1
    99    58    57    2
   100    65    64    1
   101    40    41    2
   102   142   141    1
   103    57    56    1
   104    57    63   am
   105    56    55    1
   106   141   140    1
   107    55    46   am
   108    64    63    1
   109    64    67    1
   110   133   131   am
   111    70    72   ar
   112    70    68   ar
   113    72    71   ar
   114   130   131    1
   115   130   127    1
   116   140   139    1
   117    68    67    1
   118    68    69   ar
   119   131   132    2
   120    46    45    1
   121    46    47    2
   122    71    69   ar
   123    45    44    1
   124    45    48    1
   125    52    50   ar
   126    52    54   ar
   127   139   138    1
   128   169   166    1
   129    50    49   ar
   130   126   127    1
   131    54    53   ar
   132   127   128    1
   133    49    48    1
   134    49    51   ar
   135   128   129    2
   136   128   134   am
   137    53    51   ar
   138   138   135    1
   139   134   135    1
   140   166   165    1
   141   166   167    1
   142   157   156    1
   143   165   161   am
   144   135   136    1
   145   167   168    2
   146   167   170   am
   147   170   171    1
   148   171   174    1
   149   171   172    1
   150   161   160    1
   151   161   162    2
   152   156   158    1
   153   156   155    1
   154   174   175    1
   155   136   137    2
   156   160   159    1
   157   160   163    1
   158   175   176    1
   159   155   152    1
   160   176   177    1
   161   177   178    1
   162   149   148   ar
   163   172   173    2
   164   164   163    1
   165   150   148   ar
   166   148   147    1
   167   154   153    2
   168   152   151    1
   169   152   153    1
   170   151   145   am
   171   143   144    1
   172   147   144    1
   173   145   144    1
   174   145   146    2
