@<TRIPOS>MOLECULE
tmp/2fg6B00.pdb
 156 147 0 0 0
SMALL
GASTEIGER

@<TRIPOS>ATOM
      1  N         43.5550  -76.6120  -14.1890 N.3    53  ARG53      -0.1245
      2  CA        44.8420  -77.2900  -14.0410 C.3    53  ARG53       0.1563
      3  C         45.7900  -76.6550  -13.0470 C.2    53  ARG53       0.2260
      4  O         46.3180  -77.3340  -12.1680 O.2    53  ARG53      -0.2867
      5  CB        45.5570  -77.3670  -15.3940 C.3    53  ARG53       0.0307
      6  CG        45.2150  -78.5830  -16.2510 C.3    53  ARG53       0.0489
      7  CD        45.3080  -78.2040  -17.7080 C.3    53  ARG53       0.2205
      8  NE        44.2700  -77.2310  -18.0250 N.pl3  53  ARG53      -0.0865
      9  CZ        42.9940  -77.5440  -18.2000 C.cat  53  ARG53       0.5346
     10  NH1       42.6030  -78.8130  -18.0990 N.pl3  53  ARG53       0.1354
     11  NH2       42.1100  -76.5870  -18.4490 N.pl3  53  ARG53       0.1354
     12  N         48.3900  -65.7210  -10.8950 N.3   114  ARG114     -0.1245
     13  CA        48.0050  -65.8900  -12.2850 C.3   114  ARG114      0.1563
     14  C         47.3930  -64.5740  -12.7320 C.2   114  ARG114      0.2260
     15  O         46.3940  -64.1210  -12.1610 O.2   114  ARG114     -0.2867
     16  CB        46.9680  -66.9980  -12.4710 C.3   114  ARG114      0.0307
     17  CG        46.3050  -66.9150  -13.8520 C.3   114  ARG114      0.0489
     18  CD        45.4920  -68.1370  -14.2180 C.3   114  ARG114      0.2205
     19  NE        46.3550  -69.1980  -14.7260 N.pl3 114  ARG114     -0.0865
     20  CZ        45.9710  -70.1640  -15.5530 C.cat 114  ARG114      0.5346
     21  NH1       44.7220  -70.2210  -15.9910 N.pl3 114  ARG114      0.1354
     22  NH2       46.8500  -71.0800  -15.9350 N.pl3 114  ARG114      0.1354
     23  N         46.6830  -63.0000  -16.5540 N.3   116  PHE116     -0.1241
     24  CA        46.7540  -63.0190  -18.0180 C.3   116  PHE116      0.1605
     25  C         47.0620  -61.6540  -18.6300 C.2   116  PHE116      0.2264
     26  O         46.8480  -60.6150  -18.0110 O.2   116  PHE116     -0.2867
     27  CB        45.4310  -63.5160  -18.6080 C.3   116  PHE116      0.0534
     28  CG        45.2050  -64.9950  -18.4700 C.ar  116  PHE116     -0.0203
     29  CD1       46.0760  -65.7940  -17.7310 C.ar  116  PHE116     -0.0042
     30  CD2       44.0970  -65.5900  -19.0680 C.ar  116  PHE116     -0.0042
     31  CE1       45.8420  -67.1650  -17.5910 C.ar  116  PHE116     -0.0003
     32  CE2       43.8570  -66.9480  -18.9350 C.ar  116  PHE116     -0.0003
     33  CZ        44.7280  -67.7400  -18.1970 C.ar  116  PHE116     -0.0000
     34  N         50.9810  -68.1840  -14.5250 N.3   146  GLU146     -0.1245
     35  CA        50.7880  -67.6820  -15.8750 C.3   146  GLU146      0.1567
     36  C         50.6640  -66.1800  -15.8100 C.2   146  GLU146      0.2260
     37  O         49.6830  -65.6450  -15.2940 O.2   146  GLU146     -0.2867
     38  CB        49.5610  -68.2340  -16.5950 C.3   146  GLU146      0.0388
     39  CG        49.6150  -67.7900  -18.0630 C.3   146  GLU146      0.1160
     40  CD        48.4750  -68.2810  -18.9250 C.2   146  GLU146      0.3649
     41  OE1       48.0710  -69.4510  -18.7940 O.co2 146  GLU146     -0.2457
     42  OE2       48.0030  -67.4880  -19.7650 O.co2 146  GLU146     -0.2457
     43  N         54.7110  -68.6840  -18.8150 N.3   151  HIS151     -0.1241
     44  CA        53.9480  -69.6460  -18.0450 C.3   151  HIS151      0.1621
     45  C         54.9120  -70.7970  -17.7650 C.2   151  HIS151      0.2264
     46  O         54.6810  -71.9310  -18.1850 O.2   151  HIS151     -0.2867
     47  CB        52.7560  -70.1360  -18.8650 C.3   151  HIS151      0.0745
     48  CG        51.7160  -70.8580  -18.0600 C.ar  151  HIS151      0.0817
     49  ND1       51.9410  -71.3040  -16.7740 N.ar  151  HIS151     -0.2268
     50  CD2       50.4600  -71.2520  -18.3790 C.ar  151  HIS151      0.1154
     51  CE1       50.8710  -71.9440  -16.3390 C.ar  151  HIS151      0.1986
     52  NE2       49.9580  -71.9270  -17.2930 N.ar  151  HIS151     -0.2212
     53  N         53.9310  -74.4950  -16.6620 N.3   154  GLN154     -0.1245
     54  CA        53.4390  -75.3250  -17.7530 C.3   154  GLN154      0.1566
     55  C         54.5960  -75.8630  -18.5880 C.2   154  GLN154      0.2260
     56  O         54.7550  -77.0770  -18.7440 O.2   154  GLN154     -0.2867
     57  CB        52.5200  -74.4950  -18.6430 C.3   154  GLN154      0.0367
     58  CG        51.9680  -75.2310  -19.8480 C.3   154  GLN154      0.0905
     59  CD        51.0360  -76.3590  -19.4710 C.2   154  GLN154      0.2608
     60  OE1       50.0160  -76.1450  -18.7980 O.2   154  GLN154     -0.2717
     61  NE2       51.3750  -77.5740  -19.9030 N.am  154  GLN154     -0.0878
     62  N         41.4000  -70.0860  -33.3330 N.3   180  HIS180     -0.1241
     63  CA        40.6500  -69.9570  -32.0860 C.3   180  HIS180      0.1621
     64  C         39.6630  -68.7840  -32.1920 C.2   180  HIS180      0.2264
     65  O         39.9610  -67.7610  -32.8070 O.2   180  HIS180     -0.2867
     66  CB        41.6320  -69.7460  -30.9390 C.3   180  HIS180      0.0745
     67  CG        41.0260  -69.8840  -29.5810 C.ar  180  HIS180      0.0817
     68  ND1       40.2140  -68.9180  -29.0260 N.ar  180  HIS180     -0.2268
     69  CD2       41.1260  -70.8720  -28.6600 C.ar  180  HIS180      0.1154
     70  CE1       39.8400  -69.3050  -27.8180 C.ar  180  HIS180      0.1986
     71  NE2       40.3790  -70.4870  -27.5730 N.ar  180  HIS180     -0.2212
     72  N         38.5110  -66.6690  -29.8180 N.3   182  ARG182     -0.1245
     73  CA        38.8200  -65.4750  -29.0370 C.3   182  ARG182      0.1563
     74  C         40.3090  -65.1500  -29.0850 C.2   182  ARG182      0.2260
     75  O         41.1240  -65.9880  -29.4670 O.2   182  ARG182     -0.2867
     76  CB        38.3350  -65.6650  -27.5920 C.3   182  ARG182      0.0307
     77  CG        36.8000  -65.7770  -27.4990 C.3   182  ARG182      0.0489
     78  CD        36.2870  -66.0170  -26.0860 C.3   182  ARG182      0.2205
     79  NE        37.3740  -66.2520  -25.1340 N.pl3 182  ARG182     -0.0865
     80  CZ        37.2050  -66.4880  -23.8310 C.cat 182  ARG182      0.5346
     81  NH1       35.9840  -66.5270  -23.2990 N.pl3 182  ARG182      0.1354
     82  NH2       38.2630  -66.6770  -23.0520 N.pl3 182  ARG182      0.1354
     83  N         43.7450  -64.9280  -27.6840 N.3   184  LEU184     -0.1231
     84  CA        44.4740  -65.5040  -26.5630 C.3   184  LEU184      0.1678
     85  C         45.8680  -64.9060  -26.4360 C.2   184  LEU184      0.2434
     86  O         46.4300  -64.4200  -27.4260 O.2   184  LEU184     -0.2733
     87  CB        44.5680  -67.0160  -26.7420 C.3   184  LEU184      0.0284
     88  CG        43.2240  -67.7360  -26.9180 C.3   184  LEU184      0.0019
     89  CD1       43.4620  -69.2230  -27.1170 C.3   184  LEU184      0.0001
     90  CD2       42.3340  -67.4910  -25.7090 C.3   184  LEU184      0.0001
     91  N         46.4450  -64.9310  -25.2110 N.am  185  PRO185     -0.2729
     92  CA        47.7830  -64.4050  -24.8980 C.3   185  PRO185      0.1401
     93  C         48.8580  -65.2310  -25.5940 C.2   185  PRO185      0.2269
     94  O         48.6260  -66.3960  -25.9360 O.2   185  PRO185     -0.2865
     95  CB        47.8800  -64.5750  -23.3860 C.3   185  PRO185      0.0296
     96  CG        46.4660  -64.6470  -22.9310 C.3   185  PRO185      0.0237
     97  CD        45.8180  -65.4690  -23.9920 C.3   185  PRO185      0.0939
     98  N         51.7880  -68.8540  -23.3230 N.3   188  VAL188     -0.1245
     99  CA        52.1600  -70.2660  -23.4390 C.3   188  VAL188      0.1561
    100  C         53.1780  -70.4720  -24.5730 C.2   188  VAL188      0.2260
    101  O         54.2160  -71.1150  -24.3810 O.2   188  VAL188     -0.2867
    102  CB        50.9230  -71.1390  -23.6680 C.3   188  VAL188      0.0252
    103  CG1       51.3270  -72.5940  -23.8710 C.3   188  VAL188      0.0019
    104  CG2       50.0110  -71.0150  -22.4740 C.3   188  VAL188      0.0019
    105  N         48.9870  -74.7710  -30.0720 N.3   240  LYS240     -0.1245
    106  CA        48.5130  -73.7400  -29.1660 C.3   240  LYS240      0.1561
    107  C         48.1840  -72.4630  -29.9300 C.2   240  LYS240      0.2260
    108  O         48.9750  -72.0130  -30.7550 O.2   240  LYS240     -0.2867
    109  CB        49.5850  -73.4580  -28.0850 C.3   240  LYS240      0.0271
    110  CG        49.1920  -72.3860  -27.0710 C.3   240  LYS240      0.0035
    111  CD        47.9770  -72.8330  -26.2710 C.3   240  LYS240      0.0206
    112  CE        47.5540  -71.7880  -25.2650 C.3   240  LYS240      0.1093
    113  NZ        46.4520  -71.0090  -25.9000 N.3   240  LYS240     -0.1314
    114  N         48.7110  -77.7830  -23.7170 N.3   278  CYS278     -0.1221
    115  CA        48.6350  -77.4030  -22.3120 C.3   278  CYS278      0.1808
    116  C         47.2300  -77.4620  -21.7130 C.2   278  CYS278      0.2601
    117  O         47.0840  -77.5280  -20.4850 O.2   278  CYS278     -0.2717
    118  CB        49.1720  -75.9880  -22.1450 C.3   278  CYS278      0.0970
    119  SG        48.1220  -74.7720  -22.9580 S.3   278  CYS278     -0.0800
    120  N         46.2050  -77.4350  -22.5690 N.am  279  LEU279     -0.1966
    121  CA        44.8160  -77.4410  -22.1060 C.3   279  LEU279      0.1713
    122  C         44.5800  -76.0940  -21.4110 C.2   279  LEU279      0.2458
    123  O         45.5120  -75.5220  -20.8250 O.2   279  LEU279     -0.2730
    124  CB        44.5860  -78.6040  -21.1310 C.3   279  LEU279      0.0310
    125  CG        44.2800  -80.0030  -21.6900 C.3   279  LEU279      0.0022
    126  CD1       45.1310  -80.2850  -22.9060 C.3   279  LEU279      0.0001
    127  CD2       44.5080  -81.0580  -20.6010 C.3   279  LEU279      0.0001
    128  N         43.3400  -75.5660  -21.4520 N.am  280  PRO280     -0.2727
    129  CA        42.1090  -76.0750  -22.0730 C.3   280  PRO280      0.1402
    130  C         42.2490  -76.1420  -23.5810 C.2   280  PRO280      0.2269
    131  O         43.0170  -75.3770  -24.1610 O.2   280  PRO280     -0.2865
    132  CB        41.0530  -75.0380  -21.6730 C.3   280  PRO280      0.0296
    133  CG        41.6220  -74.3850  -20.4760 C.3   280  PRO280      0.0237
    134  CD        43.0760  -74.2760  -20.7940 C.3   280  PRO280      0.0939
    135  N         40.0030  -76.3310  -27.3000 N.3   282  ARG282     -0.1245
    136  CA        38.7410  -76.2820  -28.0160 C.3   282  ARG282      0.1563
    137  C         38.8040  -77.3610  -29.0990 C.2   282  ARG282      0.2260
    138  O         39.5690  -77.2460  -30.0580 O.2   282  ARG282     -0.2867
    139  CB        38.5440  -74.9010  -28.6320 C.3   282  ARG282      0.0307
    140  CG        37.9440  -73.9180  -27.6570 C.3   282  ARG282      0.0489
    141  CD        38.0400  -72.5090  -28.1630 C.3   282  ARG282      0.2205
    142  NE        37.5500  -71.5800  -27.1570 N.pl3 282  ARG282     -0.0865
    143  CZ        36.2640  -71.3410  -26.9220 C.cat 282  ARG282      0.5346
    144  NH1       35.3320  -71.9640  -27.6360 N.pl3 282  ARG282      0.1354
    145  NH2       35.9120  -70.4900  -25.9640 N.pl3 282  ARG282      0.1354
    146  N         52.0270  -81.3660  -14.4930 N.3   306  ARG306     -0.1245
    147  CA        51.8790  -80.0280  -13.9530 C.3   306  ARG306      0.1563
    148  C         52.0480  -80.1280  -12.4370 C.2   306  ARG306      0.2260
    149  O         52.4990  -79.1740  -11.7950 O.2   306  ARG306     -0.2867
    150  CB        50.5030  -79.4570  -14.2950 C.3   306  ARG306      0.0307
    151  CG        50.3640  -78.9990  -15.7280 C.3   306  ARG306      0.0489
    152  CD        51.3440  -77.8870  -16.0050 C.3   306  ARG306      0.2205
    153  NE        51.1250  -76.7730  -15.0970 N.pl3 306  ARG306     -0.0865
    154  CZ        50.1670  -75.8650  -15.2520 C.cat 306  ARG306      0.5346
    155  NH1       49.3470  -75.9380  -16.2910 N.pl3 306  ARG306      0.1354
    156  NH2       50.0090  -74.8970  -14.3580 N.pl3 306  ARG306      0.1354
@<TRIPOS>BOND
     1    62    63    1
     2    65    64    2
     3    64    63    1
     4    63    66    1
     5    66    67    1
     6   108   107    2
     7   105   106    1
     8   138   137    2
     9   107   106    1
    10    72    73    1
    11    67    68   ar
    12    67    69   ar
    13    75    74    2
    14   106   109    1
    15   137   136    1
    16    74    73    1
    17    73    76    1
    18    68    70   ar
    19    69    71   ar
    20   139   136    1
    21   139   140    1
    22   141   140    1
    23   141   142    1
    24   109   110    1
    25   136   135    1
    26    70    71   ar
    27    83    84    1
    28   144   143    1
    29    76    77    1
    30    77    78    1
    31    86    85    2
    32   142   143    2
    33    89    88    1
    34   110   111    1
    35   143   145    1
    36    88    87    1
    37    88    90    1
    38    87    84    1
    39    84    85    1
    40    85    91   am
    41   111   112    1
    42    78    79    1
    43    94    93    2
    44   113   112    1
    45    93    92    1
    46    91    92    1
    47    91    97    1
    48    79    80    2
    49    92    95    1
    50   100   101    2
    51   100    99    1
    52   131   130    2
    53    97    96    1
    54   103   102    1
    55    80    81    1
    56    80    82    1
    57   114   115    1
    58   102    99    1
    59   102   104    1
    60   130   129    1
    61    99    98    1
    62    95    96    1
    63   119   118    1
    64   126   125    1
    65   120   121    1
    66   120   116   am
    67   115   118    1
    68   115   116    1
    69   121   122    1
    70   121   124    1
    71   129   132    1
    72   129   128    1
    73   116   117    2
    74   125   124    1
    75   125   127    1
    76   132   133    1
    77   128   122   am
    78   128   134    1
    79   122   123    2
    80   134   133    1
    81    61    59   am
    82    58    59    1
    83    58    57    1
    84    42    40   ar
    85    59    60    2
    86    30    32   ar
    87    30    28   ar
    88    32    33   ar
    89    40    41   ar
    90    40    39    1
    91    47    48    1
    92    47    44    1
    93    43    44    1
    94    56    55    2
    95    57    54    1
    96    25    24    1
    97    25    26    2
    98    27    28    1
    99    27    24    1
   100    55    54    1
   101    28    29   ar
   102    11     9    1
   103    50    48   ar
   104    50    52   ar
   105     9    10    1
   106     9     8    2
   107    33    31   ar
   108    46    45    2
   109    39    38    1
   110    48    49   ar
   111    44    45    1
   112     8     7    1
   113    24    23    1
   114    54    53    1
   115    29    31   ar
   116     7     6    1
   117    52    51   ar
   118    49    51   ar
   119    38    35    1
   120   155   154    1
   121     6     5    1
   122   152   151    1
   123   152   153    1
   124    21    20    1
   125    22    20    1
   126    35    36    1
   127    35    34    1
   128    36    37    2
   129   151   150    1
   130    20    19    2
   131     5     2    1
   132   154   153    2
   133   154   156    1
   134    19    18    1
   135   146   147    1
   136   150   147    1
   137    18    17    1
   138     1     2    1
   139     2     3    1
   140   147   148    1
   141    17    16    1
   142     3     4    2
   143    14    13    1
   144    14    15    2
   145    16    13    1
   146   148   149    2
   147    13    12    1
