@<TRIPOS>MOLECULE
tmp/2fg7F01.pdb
 120 115 0 0 0
SMALL
GASTEIGER

@<TRIPOS>ATOM
      1  N         18.3500  -50.5230  -32.5250 N.3    48  SER48      -0.1202
      2  CA        18.7200  -49.1150  -32.3920 C.3    48  SER48       0.2020
      3  C         18.8320  -48.4240  -33.7470 C.2    48  SER48       0.2619
      4  O         18.8960  -49.0770  -34.7890 O.2    48  SER48      -0.2717
      5  CB        20.0480  -48.9890  -31.6410 C.3    48  SER48       0.2103
      6  OG        19.9270  -49.4590  -30.3120 O.3    48  SER48      -0.2182
      7  N         18.8500  -47.0960  -33.7210 N.am   49  SER49      -0.1937
      8  CA        18.9670  -46.3090  -34.9440 C.3    49  SER49       0.2055
      9  C         19.0270  -44.8000  -34.7160 C.2    49  SER49       0.2643
     10  O         18.3050  -44.2560  -33.8780 O.2    49  SER49      -0.2714
     11  CB        17.8040  -46.6100  -35.8790 C.3    49  SER49       0.2130
     12  OG        17.7330  -45.6290  -36.8980 O.3    49  SER49      -0.2179
     13  N         19.8930  -44.1330  -35.4730 N.am   50  LEU50      -0.1963
     14  CA        20.0280  -42.6840  -35.3920 C.3    50  LEU50       0.1728
     15  C         19.5810  -42.1360  -36.7480 C.2    50  LEU50       0.2616
     16  O         18.5670  -41.4480  -36.8560 O.2    50  LEU50      -0.2715
     17  CB        21.4830  -42.2740  -35.1370 C.3    50  LEU50       0.0311
     18  CG        21.7840  -40.9400  -34.4300 C.3    50  LEU50       0.0022
     19  CD1       23.0320  -40.3370  -35.0490 C.3    50  LEU50       0.0001
     20  CD2       20.6340  -39.9610  -34.5490 C.3    50  LEU50       0.0001
     21  N         20.3410  -42.4690  -37.7840 N.am   51  ARG51      -0.1963
     22  CA        20.0490  -42.0090  -39.1310 C.3    51  ARG51       0.1729
     23  C         18.6770  -42.4200  -39.6390 C.2    51  ARG51       0.2616
     24  O         17.8690  -41.5580  -39.9730 O.2    51  ARG51      -0.2715
     25  CB        21.1240  -42.5010  -40.0950 C.3    51  ARG51       0.0348
     26  CG        22.4360  -41.7480  -39.9910 C.3    51  ARG51       0.0492
     27  CD        23.6110  -42.6770  -40.2580 C.3    51  ARG51       0.2205
     28  NE        23.9410  -43.4470  -39.0670 N.pl3  51  ARG51      -0.0865
     29  CZ        24.4930  -42.9280  -37.9770 C.cat  51  ARG51       0.5346
     30  NH1       24.7910  -41.6330  -37.9270 N.pl3  51  ARG51       0.1354
     31  NH2       24.7220  -43.7040  -36.9250 N.pl3  51  ARG51       0.1354
     32  N         18.4070  -43.7220  -39.7030 N.am   52  THR52      -0.1951
     33  CA        17.1120  -44.1930  -40.1930 C.3    52  THR52       0.1897
     34  C         15.9830  -43.5830  -39.3740 C.2    52  THR52       0.2313
     35  O         14.9720  -43.1330  -39.9140 O.2    52  THR52      -0.2863
     36  CB        17.0000  -45.7230  -40.1300 C.3    52  THR52       0.1794
     37  OG1       18.0630  -46.3140  -40.8930 O.3    52  THR52      -0.2208
     38  CG2       15.6700  -46.1720  -40.7050 C.3    52  THR52       0.0378
     39  N         12.3760  -52.1000  -38.8690 N.3   112  ARG112     -0.1245
     40  CA        13.8030  -52.3600  -38.7410 C.3   112  ARG112      0.1563
     41  C         13.9240  -53.6160  -37.8820 C.2   112  ARG112      0.2260
     42  O         13.4910  -53.6380  -36.7260 O.2   112  ARG112     -0.2867
     43  CB        14.5400  -51.2130  -38.0630 C.3   112  ARG112      0.0307
     44  CG        15.9490  -51.6210  -37.6640 C.3   112  ARG112      0.0489
     45  CD        16.8470  -50.4490  -37.3220 C.3   112  ARG112      0.2205
     46  NE        17.5020  -49.9200  -38.5180 N.pl3 112  ARG112     -0.0865
     47  CZ        18.6660  -49.2740  -38.5190 C.cat 112  ARG112      0.5346
     48  NH1       19.3170  -49.0740  -37.3800 N.pl3 112  ARG112      0.1354
     49  NH2       19.1810  -48.8280  -39.6600 N.pl3 112  ARG112      0.1354
     50  N         16.9970  -56.3200  -37.4010 N.3   114  PHE114     -0.1241
     51  CA        18.3190  -56.8780  -37.6610 C.3   114  PHE114      0.1605
     52  C         18.3040  -58.3960  -37.6450 C.2   114  PHE114      0.2264
     53  O         17.4830  -59.0120  -36.9660 O.2   114  PHE114     -0.2867
     54  CB        19.2970  -56.4060  -36.5930 C.3   114  PHE114      0.0534
     55  CG        19.7520  -54.9860  -36.7560 C.ar  114  PHE114     -0.0203
     56  CD1       19.0360  -54.0860  -37.5370 C.ar  114  PHE114     -0.0042
     57  CD2       20.9040  -54.5430  -36.1070 C.ar  114  PHE114     -0.0042
     58  CE1       19.4600  -52.7650  -37.6720 C.ar  114  PHE114     -0.0003
     59  CE2       21.3370  -53.2270  -36.2340 C.ar  114  PHE114     -0.0003
     60  CZ        20.6150  -52.3350  -37.0170 C.ar  114  PHE114     -0.0000
     61  N         15.9590  -51.6750  -42.7320 N.3   144  GLU144     -0.1245
     62  CA        17.0160  -52.6660  -42.6030 C.3   144  GLU144      0.1567
     63  C         16.4160  -53.9410  -42.0520 C.2   144  GLU144      0.2260
     64  O         15.9520  -53.9930  -40.9070 O.2   144  GLU144     -0.2867
     65  CB        18.1640  -52.2360  -41.6920 C.3   144  GLU144      0.0388
     66  CG        19.2840  -53.2830  -41.7400 C.3   144  GLU144      0.1160
     67  CD        20.5260  -52.9250  -40.9490 C.2   144  GLU144      0.3649
     68  OE1       20.9630  -51.7530  -41.0080 O.co2 144  GLU144     -0.2457
     69  OE2       21.0760  -53.8340  -40.2880 O.co2 144  GLU144     -0.2457
     70  N         19.0710  -53.5260  -46.8750 N.3   149  HIS149     -0.1241
     71  CA        18.8760  -52.2010  -46.3020 C.3   149  HIS149      0.1621
     72  C         18.7650  -51.2480  -47.4950 C.2   149  HIS149      0.2264
     73  O         19.5750  -50.3390  -47.6680 O.2   149  HIS149     -0.2867
     74  CB        20.0670  -51.8250  -45.4120 C.3   149  HIS149      0.0745
     75  CG        19.8320  -50.6190  -44.5530 C.ar  149  HIS149      0.0817
     76  ND1       18.6810  -49.8630  -44.6230 N.ar  149  HIS149     -0.2268
     77  CD2       20.6080  -50.0330  -43.6090 C.ar  149  HIS149      0.1154
     78  CE1       18.7580  -48.8650  -43.7600 C.ar  149  HIS149      0.1986
     79  NE2       19.9180  -48.9450  -43.1320 N.ar  149  HIS149     -0.2212
     80  N         19.2100  -47.3960  -47.3450 N.3   152  GLN152     -0.1245
     81  CA        20.6000  -46.9830  -47.2420 C.3   152  GLN152      0.1566
     82  C         21.2850  -47.0400  -48.5970 C.2   152  GLN152      0.2260
     83  O         21.8500  -46.0530  -49.0500 O.2   152  GLN152     -0.2867
     84  CB        21.3440  -47.8860  -46.2570 C.3   152  GLN152      0.0367
     85  CG        22.8410  -47.6170  -46.1700 C.3   152  GLN152      0.0905
     86  CD        23.1550  -46.2180  -45.6730 C.2   152  GLN152      0.2608
     87  OE1       22.6950  -45.8070  -44.6070 O.2   152  GLN152     -0.2717
     88  NE2       23.9470  -45.4810  -46.4410 N.am  152  GLN152     -0.0878
     89  N         27.9590  -46.1580  -44.2390 N.3   276  CYS276     -0.1221
     90  CA        26.5760  -45.9400  -43.8330 C.3   276  CYS276      0.1808
     91  C         26.4080  -45.3850  -42.4270 C.2   276  CYS276      0.2601
     92  O         25.3860  -44.7650  -42.1300 O.2   276  CYS276     -0.2717
     93  CB        25.7980  -47.2460  -43.9350 C.3   276  CYS276      0.0970
     94  SG        26.4170  -48.5260  -42.8340 S.3   276  CYS276     -0.0800
     95  N         27.4000  -45.6060  -41.5670 N.am  277  LEU277     -0.1966
     96  CA        27.3320  -45.1500  -40.1780 C.3   277  LEU277      0.1713
     97  C         26.2650  -45.9660  -39.4460 C.2   277  LEU277      0.2458
     98  O         25.2760  -46.3830  -40.0480 O.2   277  LEU277     -0.2730
     99  CB        26.9790  -43.6610  -40.1140 C.3   277  LEU277      0.0310
    100  CG        28.1020  -42.6440  -40.3420 C.3   277  LEU277      0.0022
    101  CD1       28.9030  -42.9990  -41.5710 C.3   277  LEU277      0.0001
    102  CD2       27.4940  -41.2630  -40.4820 C.3   277  LEU277      0.0001
    103  N         26.4470  -46.2140  -38.1390 N.am  278  PRO278     -0.2727
    104  CA        27.5370  -45.8250  -37.2370 C.3   278  PRO278      0.1402
    105  C         28.8800  -46.3480  -37.7080 C.2   278  PRO278      0.2269
    106  O         28.9430  -47.3250  -38.4460 O.2   278  PRO278     -0.2865
    107  CB        27.1410  -46.4760  -35.9110 C.3   278  PRO278      0.0296
    108  CG        25.6580  -46.6680  -36.0240 C.3   278  PRO278      0.0237
    109  CD        25.4960  -47.0940  -37.4410 C.3   278  PRO278      0.0939
    110  N         20.0920  -39.8590  -47.0910 N.3   304  ARG304     -0.1245
    111  CA        19.1540  -40.8350  -46.5660 C.3   304  ARG304      0.1563
    112  C         17.7660  -40.2030  -46.5250 C.2   304  ARG304      0.2260
    113  O         16.7590  -40.8970  -46.6440 O.2   304  ARG304     -0.2867
    114  CB        19.5730  -41.2820  -45.1630 C.3   304  ARG304      0.0307
    115  CG        20.6840  -42.3260  -45.1610 C.3   304  ARG304      0.0489
    116  CD        20.2070  -43.6110  -45.8100 C.3   304  ARG304      0.2205
    117  NE        19.0700  -44.1560  -45.0750 N.pl3 304  ARG304     -0.0865
    118  CZ        19.1730  -44.8870  -43.9700 C.cat 304  ARG304      0.5346
    119  NH1       20.3630  -45.1790  -43.4720 N.pl3 304  ARG304      0.1354
    120  NH2       18.0840  -45.3000  -43.3420 N.pl3 304  ARG304      0.1354
@<TRIPOS>BOND
     1    83    82    2
     2    82    81    1
     3    73    72    2
     4    72    71    1
     5    80    81    1
     6    81    84    1
     7   110   111    1
     8    70    71    1
     9   113   112    2
    10   111   112    1
    11   111   114    1
    12    88    86   am
    13    71    74    1
    14    84    85    1
    15    85    86    1
    16   116   115    1
    17   116   117    1
    18    86    87    2
    19    74    75    1
    20   114   115    1
    21   117   118    2
    22    76    75   ar
    23    76    78   ar
    24    75    77   ar
    25    89    90    1
    26   118   119    1
    27   118   120    1
    28    93    90    1
    29    93    94    1
    30    90    91    1
    31    78    79   ar
    32    77    79   ar
    33    61    62    1
    34    62    63    1
    35    62    65    1
    36    91    92    2
    37    91    95   am
    38    63    64    2
    39    66    65    1
    40    66    67    1
    41   101   100    1
    42    95    96    1
    43    68    67   ar
    44    67    69   ar
    45    37    36    1
    46    38    36    1
    47   102   100    1
    48   100    99    1
    49    27    26    1
    50    27    28    1
    51    33    36    1
    52    33    32    1
    53    33    34    1
    54    96    99    1
    55    96    97    1
    56    25    26    1
    57    25    22    1
    58    98    97    2
    59    24    23    2
    60    35    34    2
    61    32    23   am
    62    49    47    1
    63    23    22    1
    64    97   103   am
    65    22    21    1
    66    28    29    2
    67    39    40    1
    68    40    43    1
    69    40    41    1
    70    47    46    2
    71    47    48    1
    72    46    45    1
    73   106   105    2
    74   103   109    1
    75   103   104    1
    76    43    44    1
    77    29    30    1
    78    29    31    1
    79    41    42    2
    80    21    15   am
    81   105   104    1
    82    58    56   ar
    83    58    60   ar
    84    44    45    1
    85    51    52    1
    86    51    50    1
    87    51    54    1
    88    52    53    2
    89    56    55   ar
    90   109   108    1
    91   104   107    1
    92    60    59   ar
    93    12    11    1
    94    16    15    2
    95    55    54    1
    96    55    57   ar
    97    15    14    1
    98    59    57   ar
    99   108   107    1
   100    11     8    1
   101    13    14    1
   102    13     9   am
   103    14    17    1
   104    17    18    1
   105    19    18    1
   106     8     9    1
   107     8     7    1
   108     4     3    2
   109     9    10    2
   110    20    18    1
   111     3     7   am
   112     3     2    1
   113     1     2    1
   114     2     5    1
   115     5     6    1
