@<TRIPOS>MOLECULE
tmp/2fg9A00.pdb
 130 121 0 0 0
SMALL
GASTEIGER

@<TRIPOS>ATOM
      1  N         29.0570    3.9710   37.8830 N.3    15  THR15      -0.1218
      2  CA        30.3650    4.4710   38.2140 C.3    15  THR15       0.1862
      3  C         31.3820    3.7090   37.4010 C.2    15  THR15       0.2287
      4  O         31.1820    2.5550   37.0590 O.2    15  THR15      -0.2866
      5  CB        30.6890    4.3730   39.7160 C.3    15  THR15       0.1770
      6  OG1       30.5050    3.0370   40.1650 O.3    15  THR15      -0.2211
      7  CG2       29.7880    5.2600   40.5020 C.3    15  THR15       0.0375
      8  N         35.6630    2.9990   37.4120 N.3    17  VAL17      -0.1245
      9  CA        36.8810    3.1150   38.1770 C.3    17  VAL17       0.1561
     10  C         37.9440    3.7970   37.3210 C.2    17  VAL17       0.2260
     11  O         38.1180    3.4750   36.1510 O.2    17  VAL17      -0.2867
     12  CB        37.3610    1.7240   38.6450 C.3    17  VAL17       0.0252
     13  CG1       38.8030    1.7790   39.1920 C.3    17  VAL17       0.0019
     14  CG2       36.4030    1.1390   39.7030 C.3    17  VAL17       0.0019
     15  N         38.5460   12.4850   50.7520 N.3    80  THR80      -0.1218
     16  CA        37.8530   12.4410   49.4660 C.3    80  THR80       0.1862
     17  C         37.8200   13.7860   48.7850 C.2    80  THR80       0.2287
     18  O         37.7550   14.8310   49.4330 O.2    80  THR80      -0.2866
     19  CB        36.4420   11.9160   49.6850 C.3    80  THR80       0.1770
     20  OG1       36.5310   10.5870   50.2110 O.3    80  THR80      -0.2211
     21  CG2       35.6680   11.8490   48.4170 C.3    80  THR80       0.0375
     22  N         36.4770   15.9660   45.0600 N.3    82  SER82      -0.1202
     23  CA        35.6980   15.9180   43.8490 C.3    82  SER82       0.2020
     24  C         35.5980   17.2360   43.1730 C.2    82  SER82       0.2618
     25  O         35.4970   18.2530   43.8270 O.2    82  SER82      -0.2717
     26  CB        34.2820   15.4110   44.1360 C.3    82  SER82       0.2103
     27  OG        33.5460   15.3840   42.9420 O.3    82  SER82      -0.2182
     28  N         35.5630   17.2100   41.8470 N.am   83  LEU83      -0.1979
     29  CA        35.3820   18.4310   41.0680 C.3    83  LEU83       0.1596
     30  C         33.9280   18.4900   40.6590 C.2    83  LEU83       0.2287
     31  O         33.2090   17.4520   40.6310 O.2    83  LEU83      -0.2864
     32  CB        36.2460   18.4070   39.8140 C.3    83  LEU83       0.0297
     33  CG        37.5820   17.6700   39.9880 C.3    83  LEU83       0.0022
     34  CD1       38.2550   17.4310   38.6150 C.3    83  LEU83       0.0001
     35  CD2       38.4680   18.4590   41.0030 C.3    83  LEU83       0.0001
     36  N         30.2870   18.7390   38.6430 N.3    85  HIS85      -0.1241
     37  CA        29.7730   17.9000   37.5940 C.3    85  HIS85       0.1621
     38  C         29.7930   18.6420   36.2900 C.2    85  HIS85       0.2264
     39  O         29.7110   19.8340   36.2720 O.2    85  HIS85      -0.2867
     40  CB        28.3790   17.4040   37.9110 C.3    85  HIS85       0.0745
     41  CG        27.3450   18.4740   37.9290 C.ar   85  HIS85       0.0817
     42  ND1       26.9550   19.1080   39.0900 N.ar   85  HIS85      -0.2268
     43  CD2       26.5810   18.9950   36.9340 C.ar   85  HIS85       0.1154
     44  CE1       26.0070   19.9910   38.8010 C.ar   85  HIS85       0.1986
     45  NE2       25.7570   19.9360   37.5040 N.ar   85  HIS85      -0.2212
     46  N         30.7690   13.4180   36.8850 N.3    97  SER97      -0.1202
     47  CA        31.8230   14.0000   37.6860 C.3    97  SER97       0.2020
     48  C         32.8700   12.9860   38.0560 C.2    97  SER97       0.2619
     49  O         32.7220   11.7840   37.7990 O.2    97  SER97      -0.2717
     50  CB        31.2380   14.6380   38.9270 C.3    97  SER97       0.2103
     51  OG        30.2990   13.7720   39.4680 O.3    97  SER97      -0.2182
     52  N         33.9550   13.4530   38.6420 N.am   98  GLU98      -0.1965
     53  CA        34.9760   12.5280   39.0670 C.3    98  GLU98       0.1733
     54  C         35.4720   12.8600   40.4430 C.2    98  GLU98       0.2617
     55  O         35.3870   14.0130   40.8600 O.2    98  GLU98      -0.2715
     56  CB        36.1230   12.4770   38.0560 C.3    98  GLU98       0.0429
     57  CG        36.5440   13.7630   37.4510 C.3    98  GLU98       0.1163
     58  CD        37.5030   13.5500   36.2490 C.2    98  GLU98       0.3649
     59  OE1       37.3520   12.5350   35.5200 O.co2  98  GLU98      -0.2457
     60  OE2       38.3900   14.4250   36.0230 O.co2  98  GLU98      -0.2457
     61  N         35.9690   11.8400   41.1310 N.am   99  SER99      -0.1936
     62  CA        36.4330   11.9750   42.4850 C.3    99  SER99       0.2055
     63  C         37.6250   11.1200   42.7540 C.2    99  SER99       0.2642
     64  O         37.8570   10.1410   42.0770 O.2    99  SER99      -0.2714
     65  CB        35.3600   11.5590   43.4880 C.3    99  SER99       0.2130
     66  OG        34.8520   10.2700   43.2110 O.3    99  SER99      -0.2179
     67  N         38.3640   11.5000   43.7840 N.am  100  ALA100     -0.1977
     68  CA        39.4620   10.7030   44.2880 C.3   100  ALA100      0.1597
     69  C         39.1890   10.4290   45.7500 C.2   100  ALA100      0.2287
     70  O         38.4670   11.1720   46.3920 O.2   100  ALA100     -0.2864
     71  CB        40.7370   11.4100   44.1330 C.3   100  ALA100      0.0319
     72  N         43.0040    6.7490   51.4640 N.3   102  ARG102     -0.1245
     73  CA        42.9280    6.1590   52.8090 C.3   102  ARG102      0.1563
     74  C         44.3400    6.0840   53.3650 C.2   102  ARG102      0.2260
     75  O         45.2660    5.6770   52.6710 O.2   102  ARG102     -0.2867
     76  CB        42.3350    4.7710   52.7520 C.3   102  ARG102      0.0307
     77  CG        40.7920    4.7200   52.4950 C.3   102  ARG102      0.0489
     78  CD        40.3160    3.3790   52.9980 C.3   102  ARG102      0.2205
     79  NE        38.9600    2.9020   52.6600 N.pl3 102  ARG102     -0.0865
     80  CZ        38.5620    2.5900   51.4310 C.cat 102  ARG102      0.5346
     81  NH1       39.3660    2.7710   50.3810 N.pl3 102  ARG102      0.1354
     82  NH2       37.3340    2.1340   51.2420 N.pl3 102  ARG102      0.1354
     83  N         45.9960    3.7600   50.2180 N.3   147  GLN147     -0.1245
     84  CA        45.1900    3.3920   49.0760 C.3   147  GLN147      0.1566
     85  C         44.5650    4.6460   48.4910 C.2   147  GLN147      0.2260
     86  O         44.0140    5.4760   49.1930 O.2   147  GLN147     -0.2867
     87  CB        44.1220    2.3510   49.4530 C.3   147  GLN147      0.0367
     88  CG        43.2060    2.0120   48.2680 C.3   147  GLN147      0.0905
     89  CD        42.1810    0.9350   48.5810 C.2   147  GLN147      0.2608
     90  OE1       41.9090    0.6420   49.7600 O.2   147  GLN147     -0.2717
     91  NE2       41.6040    0.3350   47.5200 N.am  147  GLN147     -0.0878
     92  N         42.2270    5.8360   45.1680 N.3   148  THR148     -0.1203
     93  CA        41.3120    5.3730   44.1220 C.3   148  THR148      0.1994
     94  C         40.5730    6.5410   43.5250 C.2   148  THR148      0.2618
     95  O         40.5210    7.6120   44.1190 O.2   148  THR148     -0.2717
     96  CB        40.3350    4.3430   44.6780 C.3   148  THR148      0.1784
     97  OG1       39.6480    4.8850   45.8060 O.3   148  THR148     -0.2211
     98  CG2       41.0820    3.1770   45.1600 C.3   148  THR148      0.0376
     99  N         40.0300    6.3390   42.3350 N.am  149  GLY149     -0.1942
    100  CA        39.2850    7.3780   41.6330 C.3   149  GLY149      0.2014
    101  C         38.0530    6.7440   41.0310 C.2   149  GLY149      0.2638
    102  O         38.0190    5.5370   40.8210 O.2   149  GLY149     -0.2714
    103  N         37.0300    7.5430   40.7870 N.am  150  LYS150     -0.1977
    104  CA        35.7510    7.0210   40.3270 C.3   150  LYS150      0.1596
    105  C         35.1730    8.1090   39.4620 C.2   150  LYS150      0.2287
    106  O         35.2720    9.2790   39.8020 O.2   150  LYS150     -0.2864
    107  CB        34.8130    6.6480   41.5240 C.3   150  LYS150      0.0298
    108  CG        33.6530    5.7100   41.1700 C.3   150  LYS150      0.0038
    109  CD        34.0640    4.3060   41.6110 C.3   150  LYS150      0.0206
    110  CE        33.0000    3.5250   42.3360 C.3   150  LYS150      0.1093
    111  NZ        33.6260    2.5740   43.3110 N.3   150  LYS150     -0.1314
    112  N         31.4660    9.1640   38.0510 N.3   152  PHE152     -0.1241
    113  CA        30.0790    8.8470   38.1710 C.3   152  PHE152      0.1605
    114  C         29.2790    9.5190   37.0610 C.2   152  PHE152      0.2264
    115  O         29.3850   10.7190   36.8970 O.2   152  PHE152     -0.2867
    116  CB        29.5670    9.2820   39.5140 C.3   152  PHE152      0.0534
    117  CG        28.0780    9.2360   39.6230 C.ar  152  PHE152     -0.0203
    118  CD1       27.3210   10.3540   39.2650 C.ar  152  PHE152     -0.0042
    119  CD2       27.4290    8.0880   40.0710 C.ar  152  PHE152     -0.0042
    120  CE1       25.9400   10.3450   39.3710 C.ar  152  PHE152     -0.0003
    121  CE2       26.0530    8.0570   40.2030 C.ar  152  PHE152     -0.0003
    122  CZ        25.2860    9.2110   39.8460 C.ar  152  PHE152     -0.0000
    123  N         25.3600   10.0280   35.8300 N.3   154  LEU154     -0.1245
    124  CA        23.8980    9.9970   36.0280 C.3   154  LEU154      0.1561
    125  C         23.1570   10.3210   34.7240 C.2   154  LEU154      0.2260
    126  O         23.3110   11.4160   34.2230 O.2   154  LEU154     -0.2867
    127  CB        23.5000   11.0000   37.1100 C.3   154  LEU154      0.0270
    128  CG        22.0110   11.3790   37.2340 C.3   154  LEU154      0.0019
    129  CD1       21.1090   10.1770   37.0070 C.3   154  LEU154      0.0001
    130  CD2       21.7050   12.0010   38.6270 C.3   154  LEU154      0.0001
@<TRIPOS>BOND
     1   126   125    2
     2   125   124    1
     3    59    58   ar
     4   123   124    1
     5    60    58   ar
     6   124   127    1
     7    11    10    2
     8    58    57    1
     9    39    38    2
    10    38    37    1
    11    46    47    1
    12   115   114    2
    13    43    45   ar
    14    43    41   ar
    15   129   128    1
    16     4     3    2
    17   114   113    1
    18   127   128    1
    19   128   130    1
    20    10     9    1
    21     3     2    1
    22     8     9    1
    23    57    56    1
    24    45    44   ar
    25    37    40    1
    26    37    36    1
    27    47    48    1
    28    47    50    1
    29    49    48    2
    30     1     2    1
    31    40    41    1
    32    41    42   ar
    33   112   113    1
    34    48    52   am
    35    56    53    1
    36   113   116    1
    37     9    12    1
    38     2     5    1
    39    34    33    1
    40    52    53    1
    41    12    13    1
    42    12    14    1
    43    44    42   ar
    44    50    51    1
    45    53    54    1
    46   118   120   ar
    47   118   117   ar
    48   120   122   ar
    49   105   106    2
    50   105   104    1
    51   116   117    1
    52   117   119   ar
    53     5     6    1
    54     5     7    1
    55    32    33    1
    56    32    29    1
    57   122   121   ar
    58    33    35    1
    59   119   121   ar
    60   104   103    1
    61   104   107    1
    62    54    55    2
    63    54    61   am
    64    31    30    2
    65    30    29    1
    66   103   101   am
    67   102   101    2
    68   101   100    1
    69    29    28    1
    70    61    62    1
    71   108   107    1
    72   108   109    1
    73   109   110    1
    74   100    99    1
    75    28    24   am
    76    64    63    2
    77    99    94   am
    78   110   111    1
    79    62    63    1
    80    62    65    1
    81    63    67   am
    82    27    26    1
    83    24    25    2
    84    24    23    1
    85    66    65    1
    86    94    95    2
    87    94    93    1
    88    67    68    1
    89    23    26    1
    90    23    22    1
    91    93    96    1
    92    93    92    1
    93    71    68    1
    94    68    69    1
    95    96    98    1
    96    96    97    1
    97    69    70    2
    98    91    89   am
    99    88    89    1
   100    88    87    1
   101    21    19    1
   102    85    84    1
   103    85    86    2
   104    89    90    2
   105    17    18    2
   106    17    16    1
   107    84    87    1
   108    84    83    1
   109    16    19    1
   110    16    15    1
   111    19    20    1
   112    81    80    1
   113    82    80    1
   114    80    79    2
   115    72    73    1
   116    77    76    1
   117    77    78    1
   118    79    78    1
   119    75    74    2
   120    76    73    1
   121    73    74    1
