@<TRIPOS>MOLECULE
tmp/2fgbA00.pdb
 159 159 0 0 0
SMALL
GASTEIGER

@<TRIPOS>ATOM
      1  N         34.4070   38.0090   10.5670 N.3    27  PRO27      -0.2116
      2  CA        34.5900   39.3440   11.1640 C.3    27  PRO27       0.1372
      3  C         35.1330   40.4140   10.2130 C.2    27  PRO27       0.2244
      4  O         34.9160   41.6020   10.4520 O.2    27  PRO27      -0.2868
      5  CB        35.5870   39.1040   12.3040 C.3    27  PRO27       0.0268
      6  CG        35.6630   37.6540   12.5070 C.3    27  PRO27       0.0207
      7  CD        35.1840   36.9710   11.2690 C.3    27  PRO27       0.0892
      8  N         26.8290   33.8380   18.5360 N.3    54  LEU54      -0.1245
      9  CA        28.1800   33.7460   17.9980 C.3    54  LEU54       0.1561
     10  C         28.4170   34.7010   16.8300 C.2    54  LEU54       0.2260
     11  O         29.5460   35.1450   16.5990 O.2    54  LEU54      -0.2867
     12  CB        28.4480   32.3120   17.5430 C.3    54  LEU54       0.0270
     13  CG        29.8250   32.0200   16.9380 C.3    54  LEU54       0.0019
     14  CD1       30.9170   32.0690   17.9910 C.3    54  LEU54       0.0001
     15  CD2       29.8050   30.6760   16.2200 C.3    54  LEU54       0.0001
     16  N         25.2250   30.1080   22.7690 N.3    86  TRP86      -0.1241
     17  CA        26.6260   29.7870   22.5320 C.3    86  TRP86       0.1605
     18  C         27.1800   28.9000   23.6600 C.2    86  TRP86       0.2264
     19  O         26.6130   28.8260   24.7550 O.2    86  TRP86      -0.2867
     20  CB        27.4780   31.0420   22.2480 C.3    86  TRP86       0.0550
     21  CG        28.8960   30.6610   21.9510 C.ar   86  TRP86       0.0003
     22  CD1       30.0110   31.0660   22.6250 C.ar   86  TRP86       0.0946
     23  CD2       29.3420   29.7170   20.9610 C.ar   86  TRP86       0.0152
     24  NE1       31.1280   30.4500   22.1020 N.ar   86  TRP86      -0.2442
     25  CE2       30.7470   29.6090   21.0880 C.ar   86  TRP86       0.0810
     26  CE3       28.6860   28.9410   19.9910 C.ar   86  TRP86       0.0012
     27  CZ2       31.5140   28.7710   20.2620 C.ar   86  TRP86       0.0191
     28  CZ3       29.4430   28.1040   19.1770 C.ar   86  TRP86       0.0001
     29  CH2       30.8460   28.0220   19.3250 C.ar   86  TRP86       0.0015
     30  N         23.6510   25.7410   20.2620 N.3   117  HIS117     -0.1226
     31  CA        24.4930   25.8480   19.0520 C.3   117  HIS117      0.1752
     32  C         25.3580   24.6060   18.8140 C.2   117  HIS117      0.2596
     33  O         25.5650   24.1910   17.6680 O.2   117  HIS117     -0.2718
     34  CB        25.3860   27.0910   19.1530 C.3   117  HIS117      0.0759
     35  CG        25.8530   27.6410   17.8350 C.ar  117  HIS117      0.0818
     36  ND1       25.9450   28.9970   17.5960 N.ar  117  HIS117     -0.2268
     37  CD2       26.2860   27.0290   16.7030 C.ar  117  HIS117      0.1154
     38  CE1       26.4030   29.1960   16.3710 C.ar  117  HIS117      0.1986
     39  NE2       26.6190   28.0200   15.8070 N.ar  117  HIS117     -0.2212
     40  N         25.8610   24.0200   19.8990 N.am  118  SER118     -0.1952
     41  CA        26.8370   22.9540   19.8100 C.3   118  SER118      0.1924
     42  C         26.8550   22.1900   21.1290 C.2   118  SER118      0.2314
     43  O         26.6470   22.7860   22.1840 O.2   118  SER118     -0.2863
     44  CB        28.2070   23.5760   19.5430 C.3   118  SER118      0.2116
     45  OG        29.2420   22.6690   19.8790 O.3   118  SER118     -0.2180
     46  N         29.4710   20.9720   22.3880 N.3   120  MET120     -0.1245
     47  CA        30.8330   21.0660   22.8920 C.3   120  MET120      0.1570
     48  C         30.9700   22.2510   23.8400 C.2   120  MET120      0.2261
     49  O         31.3560   23.3410   23.4480 O.2   120  MET120     -0.2867
     50  CB        31.8260   21.1490   21.7310 C.3   120  MET120      0.0387
     51  CG        31.8500   19.8870   20.8750 C.3   120  MET120      0.0595
     52  SD        32.9280   19.9950   19.4220 S.3   120  MET120     -0.1393
     53  CE        32.0190   21.1600   18.4060 C.3   120  MET120      0.0692
     54  N         32.0500   24.9860   26.4770 N.3   122  LEU122     -0.1245
     55  CA        33.2940   25.7300   26.6810 C.3   122  LEU122      0.1561
     56  C         33.1790   26.5310   27.9700 C.2   122  LEU122      0.2260
     57  O         32.0890   26.9820   28.3440 O.2   122  LEU122     -0.2867
     58  CB        33.5940   26.6300   25.4750 C.3   122  LEU122      0.0270
     59  CG        33.6600   25.9470   24.0990 C.3   122  LEU122      0.0019
     60  CD1       33.7120   26.9920   22.9920 C.3   122  LEU122      0.0001
     61  CD2       34.8480   24.9900   23.9760 C.3   122  LEU122      0.0001
     62  N         24.2690   20.3980   15.8860 N.3   156  ASN156     -0.1240
     63  CA        25.5310   19.6430   15.9300 C.3   156  ASN156      0.1653
     64  C         25.5030   18.4430   16.8620 C.2   156  ASN156      0.2266
     65  O         26.5480   17.9940   17.3310 O.2   156  ASN156     -0.2867
     66  CB        26.7160   20.5620   16.2460 C.3   156  ASN156      0.1155
     67  CG        26.9620   21.5630   15.1450 C.2   156  ASN156      0.2627
     68  OD1       27.1990   21.1750   14.0000 O.2   156  ASN156     -0.2716
     69  ND2       26.8900   22.8460   15.4690 N.am  156  ASN156     -0.0877
     70  N         23.0280   22.8990    7.4390 N.3   205  TYR205     -0.1241
     71  CA        23.9360   24.0200    7.2170 C.3   205  TYR205      0.1605
     72  C         25.1230   23.5860    6.3670 C.2   205  TYR205      0.2264
     73  O         25.3780   22.3900    6.2120 O.2   205  TYR205     -0.2867
     74  CB        24.3800   24.6940    8.5250 C.3   205  TYR205      0.0534
     75  CG        25.4100   23.9660    9.3800 C.ar  205  TYR205     -0.0201
     76  CD1       26.7590   23.8370    8.9770 C.ar  205  TYR205     -0.0009
     77  CD2       25.0590   23.4760   10.6320 C.ar  205  TYR205     -0.0009
     78  CE1       27.7040   23.2150    9.8010 C.ar  205  TYR205      0.0417
     79  CE2       25.9950   22.8620   11.4630 C.ar  205  TYR205      0.0417
     80  CZ        27.3150   22.7350   11.0370 C.ar  205  TYR205      0.1957
     81  OH        28.2440   22.1350   11.8550 O.3   205  TYR205     -0.2866
     82  N         39.8430   29.3130    9.6750 N.3   215  ARG215     -0.1231
     83  CA        39.8600   28.8820   11.0770 C.3   215  ARG215      0.1694
     84  C         39.4090   27.4330   11.2460 C.2   215  ARG215      0.2592
     85  O         39.8480   26.7420   12.1680 O.2   215  ARG215     -0.2718
     86  CB        38.9600   29.7690   11.9360 C.3   215  ARG215      0.0321
     87  CG        39.5170   31.1550   12.2020 C.3   215  ARG215      0.0489
     88  CD        38.4560   32.0530   12.8120 C.3   215  ARG215      0.2205
     89  NE        37.4290   32.4300   11.8410 N.pl3 215  ARG215     -0.0865
     90  CZ        36.3030   33.0770   12.1410 C.cat 215  ARG215      0.5346
     91  NH1       36.0360   33.4180   13.3990 N.pl3 215  ARG215      0.1354
     92  NH2       35.4440   33.3890   11.1800 N.pl3 215  ARG215      0.1354
     93  N         38.5250   26.9800   10.3550 N.am  216  TRP216     -0.1976
     94  CA        37.7620   25.7590   10.5890 C.3   216  TRP216      0.1640
     95  C         37.8510   24.7130    9.4770 C.2   216  TRP216      0.2290
     96  O         37.5680   23.5390    9.7200 O.2   216  TRP216     -0.2864
     97  CB        36.2850   26.1070   10.8400 C.3   216  TRP216      0.0576
     98  CG        36.0840   27.1280   11.9420 C.ar  216  TRP216      0.0006
     99  CD1       36.6900   27.1400   13.1720 C.ar  216  TRP216      0.0946
    100  CD2       35.2190   28.2710   11.9140 C.ar  216  TRP216      0.0152
    101  NE1       36.2630   28.2210   13.9020 N.ar  216  TRP216     -0.2442
    102  CE2       35.3650   28.9370   13.1550 C.ar  216  TRP216      0.0810
    103  CE3       34.3430   28.8100   10.9590 C.ar  216  TRP216      0.0012
    104  CZ2       34.6560   30.1030   13.4710 C.ar  216  TRP216      0.0191
    105  CZ3       33.6390   29.9710   11.2750 C.ar  216  TRP216      0.0001
    106  CH2       33.8060   30.6060   12.5230 C.ar  216  TRP216      0.0015
    107  N         33.7970   21.5330    8.5240 N.3   295  PHE295     -0.1241
    108  CA        34.2570   21.9560    9.8460 C.3   295  PHE295      0.1605
    109  C         35.0720   20.8210   10.4210 C.2   295  PHE295      0.2264
    110  O         34.5520   19.7570   10.7600 O.2   295  PHE295     -0.2867
    111  CB        33.0810   22.3260   10.7570 C.3   295  PHE295      0.0534
    112  CG        32.4530   23.6480   10.4100 C.ar  295  PHE295     -0.0203
    113  CD1       32.7290   24.7840   11.1620 C.ar  295  PHE295     -0.0042
    114  CD2       31.5950   23.7600    9.3230 C.ar  295  PHE295     -0.0042
    115  CE1       32.1660   26.0090   10.8380 C.ar  295  PHE295     -0.0003
    116  CE2       31.0350   24.9830    8.9880 C.ar  295  PHE295     -0.0003
    117  CZ        31.3170   26.1080    9.7470 C.ar  295  PHE295     -0.0000
    118  N         37.6220   21.1880   17.4980 N.3   300  PHE300     -0.1241
    119  CA        36.4210   20.3640   17.5850 C.3   300  PHE300      0.1605
    120  C         36.7750   18.9120   17.8610 C.2   300  PHE300      0.2264
    121  O         36.2210   18.2910   18.7710 O.2   300  PHE300     -0.2867
    122  CB        35.5750   20.4600   16.3010 C.3   300  PHE300      0.0534
    123  CG        35.3860   21.8660   15.7910 C.ar  300  PHE300     -0.0203
    124  CD1       35.0680   22.9120   16.6520 C.ar  300  PHE300     -0.0042
    125  CD2       35.5180   22.1360   14.4350 C.ar  300  PHE300     -0.0042
    126  CE1       34.8960   24.2100   16.1670 C.ar  300  PHE300     -0.0003
    127  CE2       35.3450   23.4190   13.9480 C.ar  300  PHE300     -0.0003
    128  CZ        35.0330   24.4590   14.8110 C.ar  300  PHE300     -0.0000
    129  N         32.6630   16.1550   20.9880 N.3   306  TYR306     -0.1228
    130  CA        32.7250   16.1250   19.5230 C.3   306  TYR306      0.1721
    131  C         31.7210   15.0970   18.9910 C.2   306  TYR306      0.2437
    132  O         31.7320   13.9530   19.4320 O.2   306  TYR306     -0.2733
    133  CB        34.1290   15.6820   19.1310 C.3   306  TYR306      0.0547
    134  CG        34.4580   15.6480   17.6580 C.ar  306  TYR306     -0.0200
    135  CD1       34.3240   16.7830   16.8520 C.ar  306  TYR306     -0.0009
    136  CD2       34.9590   14.4850   17.0840 C.ar  306  TYR306     -0.0009
    137  CE1       34.6730   16.7490   15.5030 C.ar  306  TYR306      0.0417
    138  CE2       35.3180   14.4360   15.7400 C.ar  306  TYR306      0.0417
    139  CZ        35.1610   15.5660   14.9560 C.ar  306  TYR306      0.1957
    140  OH        35.5210   15.5100   13.6190 O.3   306  TYR306     -0.2866
    141  N         30.8310   15.5040   18.0660 N.am  307  PRO307     -0.2718
    142  CA        29.7970   14.5770   17.5970 C.3   307  PRO307      0.1535
    143  C         30.1860   13.5390   16.5380 C.2   307  PRO307      0.2598
    144  O         29.3760   12.6640   16.2430 O.2   307  PRO307     -0.2715
    145  CB        28.7460   15.5220   17.0060 C.3   307  PRO307      0.0310
    146  CG        29.5410   16.6750   16.4950 C.3   307  PRO307      0.0237
    147  CD        30.6620   16.8570   17.4920 C.3   307  PRO307      0.0939
    148  N         31.3830   13.6350   15.9610 N.am  308  TYR308     -0.1974
    149  CA        31.6510   12.8640   14.7460 C.3   308  TYR308      0.1639
    150  C         32.3400   11.4850   14.8750 C.2   308  TYR308      0.2290
    151  O         32.5720   10.8240   13.8610 O.2   308  TYR308     -0.2864
    152  CB        32.3630   13.7360   13.7070 C.3   308  TYR308      0.0560
    153  CG        31.5460   14.9030   13.1800 C.ar  308  TYR308     -0.0198
    154  CD1       30.1620   14.8060   13.0060 C.ar  308  TYR308     -0.0009
    155  CD2       32.1760   16.0870   12.8110 C.ar  308  TYR308     -0.0009
    156  CE1       29.4210   15.8860   12.5170 C.ar  308  TYR308      0.0417
    157  CE2       31.4480   17.1670   12.3060 C.ar  308  TYR308      0.0417
    158  CZ        30.0730   17.0520   12.1600 C.ar  308  TYR308      0.1957
    159  OH        29.3480   18.1040   11.6560 O.3   308  TYR308     -0.2866
@<TRIPOS>BOND
     1    73    72    2
     2    72    71    1
     3    71    70    1
     4    71    74    1
     5   107   108    1
     6    74    75    1
     7    76    75   ar
     8    76    78   ar
     9   116   114   ar
    10   116   117   ar
    11   114   112   ar
    12    75    77   ar
    13    95    96    2
    14    95    94    1
    15    82    83    1
    16   117   115   ar
    17    78    80   ar
    18   108   109    1
    19   108   111    1
    20     3     4    2
    21     3     2    1
    22    93    94    1
    23    93    84   am
    24   112   111    1
    25   112   113   ar
    26   109   110    2
    27     1     2    1
    28     1     7    1
    29    94    97    1
    30    77    79   ar
    31   115   113   ar
    32    97    98    1
    33   103   105   ar
    34   103   100   ar
    35    80    79   ar
    36    80    81    1
    37    83    84    1
    38    83    86    1
    39     2     5    1
    40    92    90    1
    41    84    85    2
    42     7     6    1
    43   105   106   ar
    44   159   158    1
    45    89    90    2
    46    89    88    1
    47   100    98   ar
    48   100   102   ar
    49    86    87    1
    50    98    99   ar
    51    90    91    1
    52   158   157   ar
    53   158   156   ar
    54    87    88    1
    55     5     6    1
    56   157   155   ar
    57   156   154   ar
    58   106   104   ar
    59   155   153   ar
    60   154   153   ar
    61   102   104   ar
    62   102   101   ar
    63    99   101   ar
    64   153   152    1
    65   140   139    1
    66   152   149    1
    67   151   150    2
    68   127   125   ar
    69   127   128   ar
    70    68    67    2
    71   125   123   ar
    72   149   150    1
    73   149   148    1
    74   128   126   ar
    75   139   137   ar
    76   139   138   ar
    77    67    69   am
    78    67    66    1
    79   137   135   ar
    80   138   136   ar
    81   123   122    1
    82   123   124   ar
    83    39    38   ar
    84    39    37   ar
    85    62    63    1
    86    63    66    1
    87    63    64    1
    88   148   143   am
    89   126   124   ar
    90    15    13    1
    91   144   143    2
    92   122   119    1
    93    38    36   ar
    94   146   145    1
    95   146   147    1
    96   143   142    1
    97    11    10    2
    98    37    35   ar
    99    10     9    1
   100   135   134   ar
   101    64    65    2
   102    13    12    1
   103    13    14    1
   104   145   142    1
   105   136   134   ar
   106   147   141    1
   107   118   119    1
   108    12     9    1
   109   119   120    1
   110    36    35   ar
   111   142   141    1
   112   134   133    1
   113    33    32    2
   114    35    34    1
   115   120   121    2
   116     9     8    1
   117   141   131   am
   118    53    52    1
   119    32    31    1
   120    32    40   am
   121   131   132    2
   122   131   130    1
   123    31    34    1
   124    31    30    1
   125   133   130    1
   126    28    29   ar
   127    28    26   ar
   128    29    27   ar
   129    52    51    1
   130   130   129    1
   131    44    41    1
   132    44    45    1
   133    41    40    1
   134    41    42    1
   135    26    23   ar
   136    27    25   ar
   137    51    50    1
   138    23    25   ar
   139    23    21   ar
   140    25    24   ar
   141    42    43    2
   142    50    47    1
   143    21    20    1
   144    21    22   ar
   145    24    22   ar
   146    20    17    1
   147    46    47    1
   148    17    16    1
   149    17    18    1
   150    47    48    1
   151    60    59    1
   152    49    48    2
   153    18    19    2
   154    61    59    1
   155    59    58    1
   156    58    55    1
   157    54    55    1
   158    55    56    1
   159    56    57    2
