@<TRIPOS>MOLECULE
tmp/2fgeA00.pdb
 226 219 0 0 0
SMALL
GASTEIGER

@<TRIPOS>ATOM
      1  N         45.4430  158.7360    6.7230 N.3    62  HIS62      -0.1241
      2  CA        44.1240  158.7110    6.1160 C.3    62  HIS62       0.1621
      3  C         43.6220  157.2740    5.9280 C.2    62  HIS62       0.2264
      4  O         42.4750  156.9560    6.2420 O.2    62  HIS62      -0.2867
      5  CB        44.2110  159.4550    4.7720 C.3    62  HIS62       0.0745
      6  CG        42.8900  159.6490    4.1060 C.ar   62  HIS62       0.0817
      7  ND1       42.7750  159.9900    2.7750 N.ar   62  HIS62      -0.2268
      8  CD2       41.6300  159.4900    4.5680 C.ar   62  HIS62       0.1154
      9  CE1       41.4950  160.0750    2.4590 C.ar   62  HIS62       0.1986
     10  NE2       40.7820  159.7710    3.5260 N.ar   62  HIS62      -0.2212
     11  N         42.7850  155.7850    9.1770 N.3    65  GLN65      -0.1231
     12  CA        41.5430  156.3370    9.6780 C.3    65  GLN65       0.1698
     13  C         40.3540  155.5390    9.1360 C.2    65  GLN65       0.2592
     14  O         39.4140  155.2170    9.8770 O.2    65  GLN65      -0.2718
     15  CB        41.4690  157.8330    9.3280 C.3    65  GLN65       0.0381
     16  CG        40.2020  158.5610    9.7450 C.3    65  GLN65       0.0905
     17  CD        39.3800  159.0120    8.5320 C.2    65  GLN65       0.2608
     18  OE1       38.5190  158.2820    8.0660 O.2    65  GLN65      -0.2717
     19  NE2       39.6430  160.2140    8.0360 N.am   65  GLN65      -0.0878
     20  N         40.4140  155.1940    7.8510 N.am   66  HIS66      -0.1976
     21  CA        39.4170  154.3180    7.2350 C.3    66  HIS66       0.1656
     22  C         39.5190  152.8870    7.7700 C.2    66  HIS66       0.2291
     23  O         38.5010  152.2850    8.0850 O.2    66  HIS66      -0.2864
     24  CB        39.6070  154.2860    5.7230 C.3    66  HIS66       0.0771
     25  CG        39.0600  155.4820    5.0150 C.ar   66  HIS66       0.0820
     26  ND1       37.8000  155.4980    4.4530 N.ar   66  HIS66      -0.2267
     27  CD2       39.6040  156.6920    4.7530 C.ar   66  HIS66       0.1154
     28  CE1       37.5860  156.6720    3.8850 C.ar   66  HIS66       0.1986
     29  NE2       38.6690  157.4090    4.0430 N.ar   66  HIS66      -0.2212
     30  N         38.1840  151.4540   11.4610 N.3    69  LEU69      -0.1231
     31  CA        36.7540  151.3920   11.5930 C.3    69  LEU69       0.1693
     32  C         36.1750  150.1540   10.8820 C.2    69  LEU69       0.2592
     33  O         34.9620  150.0190   10.7650 O.2    69  LEU69      -0.2718
     34  CB        36.1170  152.6830   11.0540 C.3    69  LEU69       0.0284
     35  CG        36.2770  154.0330   11.7990 C.3    69  LEU69       0.0019
     36  CD1       35.7570  154.0610   13.2420 C.3    69  LEU69       0.0001
     37  CD2       37.7030  154.4860   11.7540 C.3    69  LEU69       0.0001
     38  N         37.0540  149.2580   10.4410 N.am   70  CYS70      -0.1970
     39  CA        36.6540  148.0320    9.7510 C.3    70  CYS70       0.1712
     40  C         36.8450  146.7500   10.5780 C.2    70  CYS70       0.2296
     41  O         37.2270  145.6970   10.0480 O.2    70  CYS70      -0.2864
     42  CB        37.4200  147.9320    8.4280 C.3    70  CYS70       0.0983
     43  SG        37.0180  149.2360    7.2480 S.3    70  CYS70      -0.0798
     44  N         32.4320  146.1170    9.2620 N.3    79  GLU79      -0.1245
     45  CA        32.4120  147.5730    9.3570 C.3    79  GLU79       0.1567
     46  C         31.5330  148.0200   10.5050 C.2    79  GLU79       0.2260
     47  O         30.3710  148.3300   10.2810 O.2    79  GLU79      -0.2867
     48  CB        31.9140  148.1810    8.0360 C.3    79  GLU79       0.0388
     49  CG        32.4670  149.5620    7.7590 C.3    79  GLU79       0.1160
     50  CD        32.7600  149.8210    6.2910 C.2    79  GLU79       0.3649
     51  OE1       32.4410  148.9750    5.4100 O.co2  79  GLU79      -0.2457
     52  OE2       33.3240  150.8950    6.0130 O.co2  79  GLU79      -0.2457
     53  N         31.5640  150.8220   12.0790 N.3    81  PHE81      -0.1241
     54  CA        31.1270  152.2060   11.8680 C.3    81  PHE81       0.1605
     55  C         29.7370  152.2510   11.2000 C.2    81  PHE81       0.2264
     56  O         28.8700  153.0310   11.6080 O.2    81  PHE81      -0.2867
     57  CB        32.1770  152.9900   11.0580 C.3    81  PHE81       0.0534
     58  CG        31.7320  154.3830   10.6270 C.ar   81  PHE81      -0.0203
     59  CD1       31.9130  155.4890   11.4760 C.ar   81  PHE81      -0.0042
     60  CD2       31.1590  154.5890    9.3630 C.ar   81  PHE81      -0.0042
     61  CE1       31.5030  156.7810   11.0840 C.ar   81  PHE81      -0.0003
     62  CE2       30.7350  155.8730    8.9590 C.ar   81  PHE81      -0.0003
     63  CZ        30.9030  156.9750    9.8210 C.ar   81  PHE81      -0.0000
     64  N         26.0320  153.6440   12.2150 N.3    85  LEU85      -0.1245
     65  CA        25.2650  154.4570   11.2740 C.3    85  LEU85       0.1561
     66  C         23.8500  153.9030   11.1120 C.2    85  LEU85       0.2260
     67  O         22.8590  154.6540   11.0780 O.2    85  LEU85      -0.2867
     68  CB        26.0180  154.4570    9.9390 C.3    85  LEU85       0.0270
     69  CG        25.7260  155.4480    8.8170 C.3    85  LEU85       0.0019
     70  CD1       25.5050  156.8630    9.3520 C.3    85  LEU85       0.0001
     71  CD2       26.9050  155.4390    7.8460 C.3    85  LEU85       0.0001
     72  N         28.3790  161.3520   14.0380 N.3    93  LEU93      -0.1231
     73  CA        29.2000  160.1500   13.8520 C.3    93  LEU93       0.1693
     74  C         30.1290  160.3510   12.6760 C.2    93  LEU93       0.2592
     75  O         29.6950  160.3240   11.5140 O.2    93  LEU93      -0.2718
     76  CB        28.3200  158.9180   13.5630 C.3    93  LEU93       0.0284
     77  CG        28.9960  157.5400   13.5440 C.3    93  LEU93       0.0019
     78  CD1       29.2920  157.0870   14.9610 C.3    93  LEU93       0.0001
     79  CD2       28.1540  156.4570   12.8420 C.3    93  LEU93       0.0001
     80  N         31.4130  160.5000   12.9440 N.am   94  ASN94      -0.1960
     81  CA        32.3610  160.6500   11.8320 C.3    94  ASN94       0.1819
     82  C         33.7940  160.4020   12.2790 C.2    94  ASN94       0.2621
     83  O         34.0420  159.9440   13.4160 O.2    94  ASN94      -0.2715
     84  CB        32.1930  162.0520   11.1770 C.3    94  ASN94       0.1195
     85  CG        32.3500  162.0250    9.6510 C.2    94  ASN94       0.2630
     86  OD1       33.1190  161.2440    9.1160 O.2    94  ASN94      -0.2716
     87  ND2       31.6170  162.8890    8.9550 N.am   94  ASN94      -0.0877
     88  N         34.7380  160.6870   11.3890 N.am   95  ALA95      -0.1963
     89  CA        36.1510  160.5910   11.6890 C.3    95  ALA95       0.1728
     90  C         36.8600  161.5240   10.7190 C.2    95  ALA95       0.2616
     91  O         36.4710  161.6000    9.5570 O.2    95  ALA95      -0.2715
     92  CB        36.6290  159.1280   11.5230 C.3    95  ALA95       0.0334
     93  N         37.8780  162.2500   11.1810 N.am   96  PHE96      -0.1960
     94  CA        38.5700  163.2390   10.3320 C.3    96  PHE96       0.1771
     95  C         40.0640  163.0600   10.3760 C.2    96  PHE96       0.2620
     96  O         40.6260  162.9000   11.4480 O.2    96  PHE96      -0.2715
     97  CB        38.3670  164.6910   10.7960 C.3    96  PHE96       0.0574
     98  CG        37.0100  165.0330   11.3250 C.ar   96  PHE96      -0.0200
     99  CD1       36.9050  165.7130   12.5380 C.ar   96  PHE96      -0.0042
    100  CD2       35.8560  164.7900   10.5890 C.ar   96  PHE96      -0.0042
    101  CE1       35.6630  166.1030   13.0440 C.ar   96  PHE96      -0.0003
    102  CE2       34.5950  165.1800   11.0690 C.ar   96  PHE96      -0.0003
    103  CZ        34.4990  165.8330   12.3080 C.ar   96  PHE96      -0.0000
    104  N         40.7140  163.1480    9.2230 N.am   97  THR97      -0.1937
    105  CA        42.1660  163.2020    9.1740 C.3    97  THR97       0.2028
    106  C         42.5720  164.6380    8.8140 C.2    97  THR97       0.2642
    107  O         42.2560  165.1150    7.7350 O.2    97  THR97      -0.2714
    108  CB        42.7470  162.2360    8.1210 C.3    97  THR97       0.1808
    109  OG1       42.2120  160.9150    8.3120 O.3    97  THR97      -0.2208
    110  CG2       44.2520  162.1770    8.2480 C.3    97  THR97       0.0379
    111  N         43.2350  165.3240    9.7340 N.am   98  TYR98      -0.1960
    112  CA        43.7730  166.6610    9.4760 C.3    98  TYR98       0.1756
    113  C         45.2170  166.4760    9.0160 C.2    98  TYR98       0.2461
    114  O         45.6990  165.3460    8.9660 O.2    98  TYR98      -0.2730
    115  CB        43.7620  167.4970   10.7480 C.3    98  TYR98       0.0574
    116  CG        42.4400  168.0880   11.1470 C.ar   98  TYR98      -0.0198
    117  CD1       42.2480  169.4730   11.1500 C.ar   98  TYR98      -0.0009
    118  CD2       41.3940  167.2740   11.5630 C.ar   98  TYR98      -0.0009
    119  CE1       41.0230  170.0220   11.5520 C.ar   98  TYR98       0.0417
    120  CE2       40.1790  167.8010   11.9530 C.ar   98  TYR98       0.0417
    121  CZ        39.9940  169.1660   11.9470 C.ar   98  TYR98       0.1957
    122  OH        38.7720  169.6550   12.3590 O.3    98  TYR98      -0.2866
    123  N         45.9050  167.5700    8.6330 N.am   99  PRO99      -0.2727
    124  CA        47.3010  167.3910    8.2350 C.3    99  PRO99       0.1402
    125  C         48.2060  166.7500    9.2890 C.2    99  PRO99       0.2269
    126  O         49.1520  166.0600    8.9070 O.2    99  PRO99      -0.2865
    127  CB        47.7630  168.8150    7.9360 C.3    99  PRO99       0.0296
    128  CG        46.4820  169.5110    7.4740 C.3    99  PRO99       0.0237
    129  CD        45.4590  168.9660    8.4430 C.3    99  PRO99       0.0939
    130  N         41.1190  149.3520    1.8330 N.3   140  GLU140     -0.1245
    131  CA        41.0240  150.7780    2.2290 C.3   140  GLU140      0.1567
    132  C         42.1520  151.6290    1.6590 C.2   140  GLU140      0.2260
    133  O         41.9880  152.8320    1.4300 O.2   140  GLU140     -0.2867
    134  CB        40.9930  150.9250    3.7500 C.3   140  GLU140      0.0388
    135  CG        39.8410  150.2010    4.4730 C.3   140  GLU140      0.1160
    136  CD        38.4650  150.6660    4.0190 C.2   140  GLU140      0.3649
    137  OE1       38.3180  151.8580    3.6650 O.co2 140  GLU140     -0.2457
    138  OE2       37.5250  149.8320    4.0110 O.co2 140  GLU140     -0.2457
    139  N         39.3300  157.8100   -3.5580 N.3   162  GLU162     -0.1245
    140  CA        38.9260  159.0690   -2.9690 C.3   162  GLU162      0.1567
    141  C         39.9340  160.1370   -3.3850 C.2   162  GLU162      0.2260
    142  O         39.5480  161.2200   -3.7970 O.2   162  GLU162     -0.2867
    143  CB        38.8390  158.9610   -1.4420 C.3   162  GLU162      0.0388
    144  CG        38.3600  160.2460   -0.7520 C.3   162  GLU162      0.1160
    145  CD        38.3230  160.1390    0.7640 C.2   162  GLU162      0.3649
    146  OE1       38.5250  159.0220    1.3010 O.co2 162  GLU162     -0.2457
    147  OE2       38.0950  161.1840    1.4310 O.co2 162  GLU162     -0.2457
    148  N         39.5250  163.8800   -5.2160 N.3   165  VAL165     -0.1245
    149  CA        40.1240  165.1180   -4.6710 C.3   165  VAL165      0.1561
    150  C         41.1600  165.7910   -5.5980 C.2   165  VAL165      0.2260
    151  O         41.0700  166.9870   -5.8540 O.2   165  VAL165     -0.2867
    152  CB        40.7480  164.8540   -3.2810 C.3   165  VAL165      0.0252
    153  CG1       41.5010  166.0770   -2.7650 C.3   165  VAL165      0.0019
    154  CG2       39.6680  164.4320   -2.2950 C.3   165  VAL165      0.0019
    155  N         49.4830  175.0900    0.9040 N.3   178  GLN178     -0.1245
    156  CA        49.9100  174.5610    2.1990 C.3   178  GLN178      0.1566
    157  C         51.3390  174.0190    2.1280 C.2   178  GLN178      0.2260
    158  O         52.1630  174.3220    2.9820 O.2   178  GLN178     -0.2867
    159  CB        48.9590  173.4630    2.7040 C.3   178  GLN178      0.0367
    160  CG        49.5660  172.6410    3.8580 C.3   178  GLN178      0.0905
    161  CD        48.7420  171.4320    4.2520 C.2   178  GLN178      0.2608
    162  OE1       47.6260  171.5850    4.7450 O.2   178  GLN178     -0.2717
    163  NE2       49.3030  170.2130    4.0590 N.am  178  GLN178     -0.0878
    164  N         51.3810  165.3280    1.8410 N.3   190  ASP190     -0.1225
    165  CA        49.9210  165.1970    1.8920 C.3   190  ASP190      0.1805
    166  C         49.4500  164.0560    2.7960 C.2   190  ASP190      0.2598
    167  O         49.6380  162.8700    2.4810 O.2   190  ASP190     -0.2718
    168  CB        49.3910  164.9990    0.4750 C.3   190  ASP190      0.1424
    169  CG        47.8900  165.2070    0.3720 C.2   190  ASP190      0.3668
    170  OD1       47.2000  165.3470    1.4060 O.co2 190  ASP190     -0.2456
    171  OD2       47.3990  165.2320   -0.7690 O.co2 190  ASP190     -0.2456
    172  N         48.8120  164.3940    3.9090 N.am  191  SER191     -0.1938
    173  CA        48.3870  163.3450    4.8470 C.3   191  SER191      0.2055
    174  C         47.2150  162.5080    4.3090 C.2   191  SER191      0.2643
    175  O         47.0080  161.3760    4.7480 O.2   191  SER191     -0.2714
    176  CB        48.0210  163.9260    6.2070 C.3   191  SER191      0.2130
    177  OG        46.9500  164.8230    6.0750 O.3   191  SER191     -0.2179
    178  N         46.4470  163.0730    3.3760 N.am  192  GLY192     -0.1954
    179  CA        45.3480  162.3260    2.7420 C.3   192  GLY192      0.1869
    180  C         45.8400  161.3120    1.7200 C.2   192  GLY192      0.2309
    181  O         45.1610  160.2930    1.4500 O.2   192  GLY192     -0.2863
    182  N         46.0910  175.0480   12.3820 N.3   337  LEU337     -0.1245
    183  CA        47.3700  174.3250   12.3950 C.3   337  LEU337      0.1561
    184  C         48.4580  175.0370   13.2350 C.2   337  LEU337      0.2260
    185  O         48.1670  175.9960   13.9740 O.2   337  LEU337     -0.2867
    186  CB        47.8640  174.0220   10.9690 C.3   337  LEU337      0.0270
    187  CG        46.8550  173.4630    9.9370 C.3   337  LEU337      0.0019
    188  CD1       47.5100  173.2750    8.5920 C.3   337  LEU337      0.0001
    189  CD2       46.1820  172.1640   10.3730 C.3   337  LEU337      0.0001
    190  N         25.7670  151.0300    0.1400 N.3   810  TRP810     -0.1241
    191  CA        27.0720  151.1320    0.7990 C.3   810  TRP810      0.1605
    192  C         28.0060  150.0240    0.2960 C.2   810  TRP810      0.2264
    193  O         29.1600  150.2750   -0.0480 O.2   810  TRP810     -0.2867
    194  CB        26.9550  151.0470    2.3260 C.3   810  TRP810      0.0550
    195  CG        28.3060  151.2540    3.0130 C.ar  810  TRP810      0.0003
    196  CD1       29.2670  150.3070    3.2450 C.ar  810  TRP810      0.0946
    197  CD2       28.8320  152.4910    3.5240 C.ar  810  TRP810      0.0152
    198  NE1       30.3560  150.8770    3.8640 N.ar  810  TRP810     -0.2442
    199  CE2       30.1150  152.2140    4.0490 C.ar  810  TRP810      0.0810
    200  CE3       28.3400  153.8020    3.5900 C.ar  810  TRP810      0.0012
    201  CZ2       30.9150  153.1990    4.6370 C.ar  810  TRP810      0.0191
    202  CZ3       29.1360  154.7880    4.1720 C.ar  810  TRP810      0.0001
    203  CH2       30.4130  154.4770    4.6910 C.ar  810  TRP810      0.0015
    204  N         29.7680  152.0220   -3.0660 N.3   814  ARG814     -0.1245
    205  CA        30.9880  152.5010   -2.4490 C.3   814  ARG814      0.1563
    206  C         32.0830  151.4310   -2.3420 C.2   814  ARG814      0.2260
    207  O         33.1120  151.5330   -3.0030 O.2   814  ARG814     -0.2867
    208  CB        30.7110  153.0790   -1.0580 C.3   814  ARG814      0.0307
    209  CG        31.9820  153.5150   -0.3370 C.3   814  ARG814      0.0489
    210  CD        31.6860  154.0510    1.0230 C.3   814  ARG814      0.2205
    211  NE        32.8250  153.9660    1.9340 N.pl3 814  ARG814     -0.0865
    212  CZ        33.5870  154.9980    2.2800 C.cat 814  ARG814      0.5346
    213  NH1       33.3590  156.2050    1.7680 N.pl3 814  ARG814      0.1354
    214  NH2       34.5820  154.8330    3.1420 N.pl3 814  ARG814      0.1354
    215  N         33.0160  157.1550   -3.9350 N.3   820  TYR820     -0.1241
    216  CA        33.1230  157.7100   -2.5930 C.3   820  TYR820      0.1605
    217  C         31.8490  157.4110   -1.7990 C.2   820  TYR820      0.2264
    218  O         31.9120  157.0880   -0.6150 O.2   820  TYR820     -0.2867
    219  CB        33.4360  159.2090   -2.6200 C.3   820  TYR820      0.0534
    220  CG        33.6030  159.8060   -1.2390 C.ar  820  TYR820     -0.0201
    221  CD1       34.6850  159.4730   -0.4320 C.ar  820  TYR820     -0.0009
    222  CD2       32.6640  160.6930   -0.7330 C.ar  820  TYR820     -0.0009
    223  CE1       34.8220  160.0250    0.8470 C.ar  820  TYR820      0.0417
    224  CE2       32.7890  161.2480    0.5300 C.ar  820  TYR820      0.0417
    225  CZ        33.8680  160.9170    1.3110 C.ar  820  TYR820      0.1957
    226  OH        33.9690  161.4760    2.5600 O.3   820  TYR820     -0.2866
@<TRIPOS>BOND
     1   151   150    2
     2   150   149    1
     3   148   149    1
     4   149   152    1
     5   215   216    1
     6   142   141    2
     7   139   140    1
     8   141   140    1
     9   152   153    1
    10   152   154    1
    11   204   205    1
    12   207   206    2
    13   140   143    1
    14   219   216    1
    15   219   220    1
    16   216   217    1
    17   205   206    1
    18   205   208    1
    19   217   218    2
    20   143   144    1
    21   220   222   ar
    22   220   221   ar
    23   208   209    1
    24   171   169   ar
    25   144   145    1
    26   222   224   ar
    27   221   223   ar
    28   209   210    1
    29   193   192    2
    30   190   191    1
    31   192   191    1
    32   169   168    1
    33   169   170   ar
    34   168   165    1
    35   224   225   ar
    36   145   146   ar
    37   145   147   ar
    38   191   194    1
    39   223   225   ar
    40   155   156    1
    41   210   211    1
    42   225   226    1
    43   133   132    2
    44   181   180    2
    45   132   131    1
    46   180   179    1
    47   213   212    1
    48   130   131    1
    49   164   165    1
    50   165   166    1
    51   211   212    2
    52   157   156    1
    53   157   158    2
    54   156   159    1
    55   131   134    1
    56   212   214    1
    57   194   195    1
    58     9     7   ar
    59     9    10   ar
    60   167   166    2
    61   159   160    1
    62   179   178    1
    63     7     6   ar
    64   166   172   am
    65   195   196   ar
    66   195   197   ar
    67   196   198   ar
    68   178   174   am
    69   197   200   ar
    70   197   199   ar
    71    10     8   ar
    72   200   202   ar
    73   137   136   ar
    74   134   135    1
    75   160   161    1
    76   198   199   ar
    77    28    29   ar
    78    28    26   ar
    79   172   173    1
    80   138   136   ar
    81   136   135    1
    82    29    27   ar
    83   199   201   ar
    84   163   161   am
    85     6     8   ar
    86     6     5    1
    87   202   203   ar
    88   161   162    2
    89   174   175    2
    90   174   173    1
    91    26    25   ar
    92   201   203   ar
    93    27    25   ar
    94     5     2    1
    95   173   176    1
    96    25    24    1
    97    51    50   ar
    98    24    21    1
    99     3     2    1
   100     3     4    2
   101    52    50   ar
   102   177   176    1
   103     2     1    1
   104    50    49    1
   105    21    22    1
   106    21    20    1
   107    43    42    1
   108   128   127    1
   109   128   129    1
   110   107   106    2
   111    49    48    1
   112    22    23    2
   113    71    69    1
   114    20    13   am
   115   127   124    1
   116    19    17   am
   117    48    45    1
   118    18    17    2
   119   108   110    1
   120   108   109    1
   121   108   105    1
   122   124   123    1
   123   124   125    1
   124    42    39    1
   125   129   123    1
   126    17    16    1
   127   188   187    1
   128   123   113   am
   129   106   105    1
   130   106   111   am
   131    69    70    1
   132    69    68    1
   133   126   125    2
   134    87    85   am
   135    62    60   ar
   136    62    63   ar
   137   114   113    2
   138   113   112    1
   139    86    85    2
   140    13    12    1
   141    13    14    2
   142   105   104    1
   143    11    12    1
   144   104    95   am
   145    44    45    1
   146    15    12    1
   147    15    16    1
   148    45    46    1
   149    60    58   ar
   150   112   111    1
   151   112   115    1
   152    91    90    2
   153    85    84    1
   154    39    38    1
   155    39    40    1
   156    63    61   ar
   157   187   189    1
   158   187   186    1
   159    68    65    1
   160    41    40    2
   161    47    46    2
   162    94    95    1
   163    94    97    1
   164    94    93    1
   165    95    96    2
   166    38    32   am
   167   100   102   ar
   168   100    98   ar
   169    58    57    1
   170    58    59   ar
   171    90    93   am
   172    90    89    1
   173   115   116    1
   174    33    32    2
   175    97    98    1
   176    32    31    1
   177   186   183    1
   178    34    31    1
   179    34    35    1
   180    57    54    1
   181   102   103   ar
   182    67    66    2
   183    61    59   ar
   184    66    65    1
   185   116   117   ar
   186   116   118   ar
   187   117   119   ar
   188    84    81    1
   189    55    56    2
   190    55    54    1
   191    65    64    1
   192    98    99   ar
   193    88    89    1
   194    88    82   am
   195    30    31    1
   196    75    74    2
   197    92    89    1
   198   119   121   ar
   199   118   120   ar
   200    37    35    1
   201    35    36    1
   202    81    82    1
   203    81    80    1
   204    54    53    1
   205   121   120   ar
   206   121   122    1
   207    82    83    2
   208   103   101   ar
   209   182   183    1
   210   183   184    1
   211    99   101   ar
   212    74    80   am
   213    74    73    1
   214    79    77    1
   215   184   185    2
   216    77    76    1
   217    77    78    1
   218    76    73    1
   219    73    72    1
