@<TRIPOS>MOLECULE
tmp/2fghA00.pdb
 183 175 0 0 0
SMALL
GASTEIGER

@<TRIPOS>ATOM
      1  N         17.7950   49.6380  -33.3660 N.3   329  ARG329     -0.1245
      2  CA        17.1460   49.0180  -34.5170 C.3   329  ARG329      0.1563
      3  C         15.6340   49.0650  -34.4200 C.2   329  ARG329      0.2260
      4  O         14.9550   48.9930  -35.4370 O.2   329  ARG329     -0.2867
      5  CB        17.6030   47.5620  -34.6730 C.3   329  ARG329      0.0307
      6  CG        18.5770   47.3330  -35.8190 C.3   329  ARG329      0.0489
      7  CD        19.5690   46.1820  -35.6320 C.3   329  ARG329      0.2205
      8  NE        19.0840   45.1710  -34.6930 N.pl3 329  ARG329     -0.0865
      9  CZ        19.8530   44.3600  -33.9790 C.cat 329  ARG329      0.5346
     10  NH1       19.2880   43.4900  -33.1510 N.pl3 329  ARG329      0.1354
     11  NH2       21.1790   44.4050  -34.0830 N.pl3 329  ARG329      0.1354
     12  N         11.6720   50.4740  -39.7680 N.3   333  LYS333     -0.1231
     13  CA        10.4620   49.8640  -40.3370 C.3   333  LYS333      0.1693
     14  C         10.5720   48.3560  -40.4560 C.2   333  LYS333      0.2592
     15  O          9.8050   47.6060  -39.8510 O.2   333  LYS333     -0.2718
     16  CB        10.1410   50.4720  -41.7250 C.3   333  LYS333      0.0285
     17  CG         8.7250   51.0730  -41.8640 C.3   333  LYS333      0.0035
     18  CD         8.7130   52.3780  -42.6980 C.3   333  LYS333      0.0206
     19  CE         7.4010   53.1750  -42.5150 C.3   333  LYS333      0.1093
     20  NZ         7.3970   54.4850  -43.2300 N.3   333  LYS333     -0.1314
     21  N         11.5010   47.9090  -41.2760 N.am  334  ASN334     -0.1960
     22  CA        11.7550   46.4880  -41.3940 C.3   334  ASN334      0.1819
     23  C         13.2210   46.3310  -41.5410 C.2   334  ASN334      0.2621
     24  O         13.7540   46.3530  -42.6470 O.2   334  ASN334     -0.2715
     25  CB        11.0200   45.8700  -42.5780 C.3   334  ASN334      0.1195
     26  CG         9.6790   45.2800  -42.1830 C.2   334  ASN334      0.2630
     27  OD1        8.6960   45.4440  -42.8960 O.2   334  ASN334     -0.2716
     28  ND2        9.6320   44.5880  -41.0430 N.am  334  ASN334     -0.0877
     29  N         13.8840   46.2290  -40.4020 N.am  335  TRP335     -0.1960
     30  CA        15.3160   46.0960  -40.4180 C.3   335  TRP335      0.1771
     31  C         15.6680   44.7590  -41.0570 C.2   335  TRP335      0.2620
     32  O         15.0450   43.7370  -40.7690 O.2   335  TRP335     -0.2715
     33  CB        15.9180   46.2290  -39.0200 C.3   335  TRP335      0.0590
     34  CG        17.3880   46.4680  -39.0810 C.ar  335  TRP335      0.0006
     35  CD1       18.3660   45.5270  -39.2120 C.ar  335  TRP335      0.0946
     36  CD2       18.0500   47.7310  -39.0580 C.ar  335  TRP335      0.0152
     37  NE1       19.6000   46.1270  -39.2520 N.ar  335  TRP335     -0.2442
     38  CE2       19.4340   47.4830  -39.1560 C.ar  335  TRP335      0.0810
     39  CE3       17.6150   49.0550  -38.9380 C.ar  335  TRP335      0.0012
     40  CZ2       20.3840   48.5050  -39.1460 C.ar  335  TRP335      0.0191
     41  CZ3       18.5570   50.0720  -38.9350 C.ar  335  TRP335      0.0001
     42  CH2       19.9280   49.7910  -39.0350 C.ar  335  TRP335      0.0015
     43  N         16.6330   44.8120  -41.9690 N.am  336  ARG336     -0.1963
     44  CA        17.2190   43.6340  -42.5940 C.3   336  ARG336      0.1729
     45  C         18.7050   43.8780  -42.7470 C.2   336  ARG336      0.2616
     46  O         19.1430   45.0250  -42.7740 O.2   336  ARG336     -0.2715
     47  CB        16.6570   43.3950  -43.9920 C.3   336  ARG336      0.0348
     48  CG        15.1580   43.4210  -44.1140 C.3   336  ARG336      0.0492
     49  CD        14.5250   42.0570  -44.0630 C.3   336  ARG336      0.2205
     50  NE        13.2040   42.1050  -43.4460 N.pl3 336  ARG336     -0.0865
     51  CZ        12.5710   41.0550  -42.9400 C.cat 336  ARG336      0.5346
     52  NH1       13.1340   39.8520  -42.9710 N.pl3 336  ARG336      0.1354
     53  NH2       11.3700   41.2070  -42.3980 N.pl3 336  ARG336      0.1354
     54  N         19.4810   42.8060  -42.8540 N.am  337  ASP337     -0.1971
     55  CA        20.8630   42.9230  -43.3260 C.3   337  ASP337      0.1709
     56  C         21.2910   41.6650  -44.0820 C.2   337  ASP337      0.2293
     57  O         21.5600   40.6420  -43.4660 O.2   337  ASP337     -0.2864
     58  CB        21.8630   43.2880  -42.2090 C.3   337  ASP337      0.1436
     59  CG        21.5590   42.6290  -40.8760 C.2   337  ASP337      0.3671
     60  OD1       20.7980   41.6420  -40.8310 O.co2 337  ASP337     -0.2456
     61  OD2       22.0550   43.0380  -39.8040 O.co2 337  ASP337     -0.2456
     62  N         23.5550   38.6720  -42.9660 N.3   340  GLN340     -0.1245
     63  CA        23.0570   37.7970  -41.8970 C.3   340  GLN340      0.1566
     64  C         21.8830   36.8710  -42.2970 C.2   340  GLN340      0.2260
     65  O         21.0580   36.5120  -41.4540 O.2   340  GLN340     -0.2867
     66  CB        22.6880   38.6370  -40.6610 C.3   340  GLN340      0.0367
     67  CG        23.7490   39.6800  -40.2440 C.3   340  GLN340      0.0905
     68  CD        24.8530   39.1230  -39.3470 C.2   340  GLN340      0.2608
     69  OE1       25.5990   39.8890  -38.7400 O.2   340  GLN340     -0.2717
     70  NE2       24.9630   37.7990  -39.2690 N.am  340  GLN340     -0.0878
     71  N         23.6360   36.9270  -34.7480 N.3   346  LEU346     -0.1245
     72  CA        23.7800   38.2200  -35.4130 C.3   346  LEU346      0.1561
     73  C         25.0480   38.9260  -34.9350 C.2   346  LEU346      0.2260
     74  O         25.8520   38.3320  -34.2350 O.2   346  LEU346     -0.2867
     75  CB        22.5550   39.0980  -35.1550 C.3   346  LEU346      0.0270
     76  CG        21.2150   38.6260  -35.7160 C.3   346  LEU346      0.0019
     77  CD1       20.1410   39.6370  -35.4170 C.3   346  LEU346      0.0001
     78  CD2       21.3040   38.3770  -37.2220 C.3   346  LEU346      0.0001
     79  N         -2.0860   36.5350  -35.8930 N.3   469  LYS469     -0.1245
     80  CA        -0.8980   36.4960  -35.0310 C.3   469  LYS469      0.1561
     81  C         -1.1020   35.4370  -33.9810 C.2   469  LYS469      0.2260
     82  O         -1.1370   35.7180  -32.7850 O.2   469  LYS469     -0.2867
     83  CB        -0.6280   37.8530  -34.3700 C.3   469  LYS469      0.0271
     84  CG         0.3140   38.7340  -35.1610 C.3   469  LYS469      0.0035
     85  CD         1.7690   38.3270  -34.9950 C.3   469  LYS469      0.0206
     86  CE         2.6860   39.3060  -35.7210 C.3   469  LYS469      0.1093
     87  NZ         3.8500   38.6600  -36.3890 N.3   469  LYS469     -0.1314
     88  N          1.9380   29.0710  -42.9900 N.3   508  ARG508     -0.1245
     89  CA         3.1960   29.3150  -42.3090 C.3   508  ARG508      0.1563
     90  C          3.4240   28.2700  -41.2330 C.2   508  ARG508      0.2260
     91  O          2.4840   27.8120  -40.6070 O.2   508  ARG508     -0.2867
     92  CB         3.1670   30.7010  -41.6930 C.3   508  ARG508      0.0307
     93  CG         4.4950   31.1540  -41.1950 C.3   508  ARG508      0.0489
     94  CD         4.5330   32.6100  -40.8720 C.3   508  ARG508      0.2205
     95  NE         5.6220   32.9160  -39.9590 N.pl3 508  ARG508     -0.0865
     96  CZ         5.9950   34.1370  -39.6210 C.cat 508  ARG508      0.5346
     97  NH1        5.3830   35.1960  -40.1140 N.pl3 508  ARG508      0.1354
     98  NH2        6.9990   34.2970  -38.7830 N.pl3 508  ARG508      0.1354
     99  N         -0.1720   26.8880  -39.4520 N.3   516  ARG516     -0.1245
    100  CA        -1.4530   27.5570  -39.5340 C.3   516  ARG516      0.1563
    101  C         -1.6760   27.9150  -41.0000 C.2   516  ARG516      0.2260
    102  O         -0.7440   28.2880  -41.6990 O.2   516  ARG516     -0.2867
    103  CB        -1.4840   28.8080  -38.6340 C.3   516  ARG516      0.0307
    104  CG        -1.0360   30.1210  -39.3010 C.3   516  ARG516      0.0489
    105  CD        -1.1830   31.3720  -38.4270 C.3   516  ARG516      0.2205
    106  NE        -0.3130   32.4920  -38.8410 N.pl3 516  ARG516     -0.0865
    107  CZ         0.8870   32.7930  -38.3070 C.cat 516  ARG516      0.5346
    108  NH1        1.4220   32.0720  -37.3230 N.pl3 516  ARG516      0.1354
    109  NH2        1.5690   33.8320  -38.7700 N.pl3 516  ARG516      0.1354
    110  N          7.7140   38.8930  -51.4170 N.3   591  ARG591     -0.1245
    111  CA         8.5500   38.8820  -50.2270 C.3   591  ARG591      0.1563
    112  C          9.4800   37.6790  -50.3830 C.2   591  ARG591      0.2260
    113  O          9.0100   36.5540  -50.5220 O.2   591  ARG591     -0.2867
    114  CB         7.7160   38.7430  -48.9490 C.3   591  ARG591      0.0307
    115  CG         7.3760   40.0660  -48.2630 C.3   591  ARG591      0.0489
    116  CD         7.9730   40.2350  -46.8590 C.3   591  ARG591      0.2205
    117  NE         7.6890   41.5680  -46.3100 N.pl3 591  ARG591     -0.0865
    118  CZ         6.8590   41.8360  -45.2960 C.cat 591  ARG591      0.5346
    119  NH1        6.1970   40.8680  -44.6660 N.pl3 591  ARG591      0.1354
    120  NH2        6.6890   43.0970  -44.9050 N.pl3 591  ARG591      0.1354
    121  N         11.9520   37.6290  -48.0450 N.3   593  SER593     -0.1217
    122  CA        12.5410   37.8590  -46.7320 C.3   593  SER593      0.1889
    123  C         12.7610   36.5450  -45.9890 C.2   593  SER593      0.2288
    124  O         11.8540   36.0960  -45.2920 O.2   593  SER593     -0.2866
    125  CB        11.6080   38.7580  -45.8990 C.3   593  SER593      0.2089
    126  OG        10.3320   38.1640  -45.6990 O.3   593  SER593     -0.2183
    127  N         13.2610   34.2310  -43.2150 N.3   595  ARG595     -0.1231
    128  CA        12.8840   34.6230  -41.8680 C.3   595  ARG595      0.1694
    129  C         14.0190   34.5150  -40.8800 C.2   595  ARG595      0.2591
    130  O         14.7960   33.5700  -40.9060 O.2   595  ARG595     -0.2718
    131  CB        11.7200   33.7820  -41.3630 C.3   595  ARG595      0.0321
    132  CG        10.4660   33.9430  -42.1730 C.3   595  ARG595      0.0489
    133  CD         9.1990   33.8810  -41.3590 C.3   595  ARG595      0.2205
    134  NE         8.0530   34.3720  -42.1200 N.pl3 595  ARG595     -0.0865
    135  CZ         7.2220   33.6140  -42.8110 C.cat 595  ARG595      0.5346
    136  NH1        7.3780   32.2990  -42.8500 N.pl3 595  ARG595      0.1354
    137  NH2        6.2220   34.1800  -43.4670 N.pl3 595  ARG595      0.1354
    138  N         14.1090   35.5160  -40.0210 N.am  596  LEU596     -0.1980
    139  CA        14.8860   35.4060  -38.8060 C.3   596  LEU596      0.1596
    140  C         14.3290   34.2120  -38.0620 C.2   596  LEU596      0.2287
    141  O         13.2710   34.3000  -37.4500 O.2   596  LEU596     -0.2864
    142  CB        14.7400   36.6710  -37.9660 C.3   596  LEU596      0.0297
    143  CG        16.0170   37.3400  -37.4890 C.3   596  LEU596      0.0022
    144  CD1       17.0790   37.4360  -38.5690 C.3   596  LEU596      0.0001
    145  CD2       15.6510   38.6970  -37.0060 C.3   596  LEU596      0.0001
    146  N         15.7400   34.9430  -34.1380 N.3   600  LYS600     -0.1245
    147  CA        14.6130   35.7460  -33.6200 C.3   600  LYS600      0.1561
    148  C         14.9770   36.4750  -32.3170 C.2   600  LYS600      0.2260
    149  O         14.8470   37.6810  -32.1920 O.2   600  LYS600     -0.2867
    150  CB        13.3850   34.8500  -33.3720 C.3   600  LYS600      0.0271
    151  CG        12.1060   35.2540  -34.1190 C.3   600  LYS600      0.0035
    152  CD        11.1230   34.0800  -34.2880 C.3   600  LYS600      0.0206
    153  CE        10.8180   33.3760  -32.9710 C.3   600  LYS600      0.1093
    154  NZ         9.8660   32.2420  -33.1190 N.3   600  LYS600     -0.1314
    155  N         17.6580   39.4110  -32.4760 N.3   603  ALA603     -0.1231
    156  CA        17.1250   40.6510  -33.0310 C.3   603  ALA603      0.1694
    157  C         16.1930   41.3710  -32.0680 C.2   603  ALA603      0.2592
    158  O         16.1030   42.6000  -32.0750 O.2   603  ALA603     -0.2718
    159  CB        16.3760   40.3530  -34.3030 C.3   603  ALA603      0.0304
    160  N         15.4850   40.5730  -31.2760 N.am  604  HIS604     -0.1976
    161  CA        14.4650   41.0380  -30.3450 C.3   604  HIS604      0.1656
    162  C         14.5700   40.2360  -29.0860 C.2   604  HIS604      0.2291
    163  O         13.7760   39.3270  -28.8570 O.2   604  HIS604     -0.2864
    164  CB        13.0750   40.9590  -31.0060 C.3   604  HIS604      0.0771
    165  CG        12.9940   41.9090  -32.1370 C.ar  604  HIS604      0.0820
    166  ND1       13.3950   41.5590  -33.4010 N.ar  604  HIS604     -0.2267
    167  CD2       12.8100   43.2480  -32.1550 C.ar  604  HIS604      0.1154
    168  CE1       13.3760   42.6290  -34.1740 C.ar  604  HIS604      0.1986
    169  NE2       13.0120   43.6650  -33.4460 N.ar  604  HIS604     -0.2212
    170  N          9.4670   38.6540  -27.7910 N.3   643  TRP643     -0.1241
    171  CA         8.9510   39.5180  -28.8680 C.3   643  TRP643      0.1605
    172  C          7.6390   38.9460  -29.3770 C.2   643  TRP643      0.2264
    173  O          6.6780   39.6600  -29.6070 O.2   643  TRP643     -0.2867
    174  CB         9.9470   39.6300  -30.0100 C.3   643  TRP643      0.0550
    175  CG         9.6070   40.6560  -31.0730 C.ar  643  TRP643      0.0003
    176  CD1        9.2030   40.4100  -32.3610 C.ar  643  TRP643      0.0946
    177  CD2        9.6900   42.0740  -30.9460 C.ar  643  TRP643      0.0152
    178  NE1        9.0290   41.5920  -33.0370 N.ar  643  TRP643     -0.2442
    179  CE2        9.3230   42.6310  -32.1950 C.ar  643  TRP643      0.0810
    180  CE3       10.0480   42.9400  -29.9010 C.ar  643  TRP643      0.0012
    181  CZ2        9.2880   44.0020  -32.4220 C.ar  643  TRP643      0.0191
    182  CZ3       10.0200   44.2980  -30.1250 C.ar  643  TRP643      0.0001
    183  CH2        9.6370   44.8220  -31.3780 C.ar  643  TRP643      0.0015
@<TRIPOS>BOND
     1   110   111    1
     2   113   112    2
     3   112   111    1
     4   111   114    1
     5   114   115    1
     6   115   116    1
     7   121   122    1
     8   116   117    1
     9   122   123    1
    10   122   125    1
    11   117   118    2
    12   123   124    2
    13   125   126    1
    14   118   120    1
    15   118   119    1
    16    48    49    1
    17    48    47    1
    18    56    57    2
    19    56    55    1
    20    49    50    1
    21    47    44    1
    22   137   135    1
    23    50    51    2
    24    55    54    1
    25    55    58    1
    26    20    19    1
    27   127   128    1
    28    88    89    1
    29    52    51    1
    30    62    63    1
    31    51    53    1
    32    27    26    2
    33    54    45   am
    34   136   135    1
    35   135   134    2
    36    46    45    2
    37    45    44    1
    38    18    19    1
    39    18    17    1
    40    24    23    2
    41    44    43    1
    42    25    26    1
    43    25    22    1
    44    89    92    1
    45    89    90    1
    46    64    63    1
    47    64    65    2
    48    58    59    1
    49    26    28   am
    50   132   131    1
    51   132   133    1
    52   134   133    1
    53    43    31   am
    54    63    66    1
    55   128   131    1
    56   128   129    1
    57    17    16    1
    58    16    13    1
    59   102   101    2
    60    92    93    1
    61    23    22    1
    62    23    29   am
    63    22    21    1
    64    21    14   am
    65    90    91    2
    66    93    94    1
    67    31    32    2
    68    31    30    1
    69   101   100    1
    70   130   129    2
    71   129   138   am
    72    59    60   ar
    73    59    61   ar
    74    94    95    1
    75    66    67    1
    76    14    13    1
    77    14    15    2
    78    30    29    1
    79    30    33    1
    80    13    12    1
    81    67    68    1
    82    97    96    1
    83   138   139    1
    84    95    96    2
    85    96    98    1
    86   100    99    1
    87   100   103    1
    88    68    70   am
    89    68    69    2
    90   104   103    1
    91   104   105    1
    92    37    35   ar
    93    37    38   ar
    94    35    34   ar
    95    38    40   ar
    96    38    36   ar
    97    40    42   ar
    98    34    36   ar
    99    34    33    1
   100    36    39   ar
   101    42    41   ar
   102    39    41   ar
   103   106   105    1
   104   106   107    2
   105   139   140    1
   106   139   142    1
   107   109   107    1
   108   144   143    1
   109   107   108    1
   110   140   141    2
   111   142   143    1
   112   143   145    1
   113    78    76    1
   114    87    86    1
   115    79    80    1
   116     6     7    1
   117     6     5    1
   118    86    85    1
   119    76    77    1
   120    76    75    1
   121     7     8    1
   122     4     3    2
   123    72    75    1
   124    72    73    1
   125    72    71    1
   126    84    85    1
   127    84    83    1
   128    80    83    1
   129    80    81    1
   130    73    74    2
   131     8     9    2
   132     5     2    1
   133     2     3    1
   134     2     1    1
   135   159   156    1
   136   152   151    1
   137   152   153    1
   138   168   169   ar
   139   168   166   ar
   140   146   147    1
   141   151   150    1
   142    11     9    1
   143    81    82    2
   144     9    10    1
   145   147   150    1
   146   147   148    1
   147   169   167   ar
   148   166   165   ar
   149   154   153    1
   150   178   176   ar
   151   178   179   ar
   152   156   155    1
   153   156   157    1
   154   181   179   ar
   155   181   183   ar
   156   176   175   ar
   157   148   149    2
   158   179   177   ar
   159   167   165   ar
   160   165   164    1
   161   158   157    2
   162   157   160   am
   163   183   182   ar
   164   160   161    1
   165   175   177   ar
   166   175   174    1
   167   164   161    1
   168   177   180   ar
   169   161   162    1
   170   182   180   ar
   171   174   171    1
   172   173   172    2
   173   172   171    1
   174   162   163    2
   175   171   170    1
