@<TRIPOS>MOLECULE
tmp/2fgiA00.pdb
 195 185 0 0 0
SMALL
GASTEIGER

@<TRIPOS>ATOM
      1  N          0.9670    8.8880   30.3090 N.3    19  LYS19      -0.1231
      2  CA         2.2950    9.5070   30.2720 C.3    19  LYS19       0.1678
      3  C          2.9070    9.6690   28.8890 C.2    19  LYS19       0.2434
      4  O          2.8840    8.7440   28.0790 O.2    19  LYS19      -0.2733
      5  CB         3.2760    8.6960   31.1260 C.3    19  LYS19       0.0284
      6  CG         4.7470    8.9420   30.7680 C.3    19  LYS19       0.0035
      7  CD         5.6710    7.8360   31.2520 C.3    19  LYS19       0.0206
      8  CE         5.2820    6.4960   30.6670 C.3    19  LYS19       0.1093
      9  NZ         6.3030    5.4630   30.9650 N.3    19  LYS19      -0.1314
     10  N          3.5020   10.8420   28.6210 N.am   20  PRO20      -0.2718
     11  CA         4.1440   11.1360   27.3360 C.3    20  PRO20       0.1535
     12  C          5.3880   10.2640   27.1640 C.2    20  PRO20       0.2598
     13  O          6.1650   10.0900   28.1080 O.2    20  PRO20      -0.2715
     14  CB         4.5280   12.6080   27.4790 C.3    20  PRO20       0.0310
     15  CG         3.4770   13.1380   28.3880 C.3    20  PRO20       0.0237
     16  CD         3.3910   12.0610   29.4340 C.3    20  PRO20       0.0939
     17  N          5.5670    9.7210   25.9620 N.am   21  LEU21      -0.1964
     18  CA         6.7120    8.8610   25.6530 C.3    21  LEU21       0.1728
     19  C          7.8950    9.6230   25.0660 C.2    21  LEU21       0.2616
     20  O          9.0440    9.2130   25.2350 O.2    21  LEU21      -0.2715
     21  CB         6.3010    7.7370   24.7010 C.3    21  LEU21       0.0311
     22  CG         5.3630    6.7180   25.3280 C.3    21  LEU21       0.0022
     23  CD1        5.0980    5.5710   24.3610 C.3    21  LEU21       0.0001
     24  CD2        6.0050    6.2070   26.6070 C.3    21  LEU21       0.0001
     25  N          7.6120   10.7270   24.3790 N.am   22  GLY22      -0.1955
     26  CA         8.6760   11.5180   23.7920 C.3    22  GLY22       0.1869
     27  C          8.2260   12.3380   22.6010 C.2    22  GLY22       0.2309
     28  O          7.1470   12.1160   22.0520 O.2    22  GLY22      -0.2863
     29  N          4.2850   13.8970   18.7690 N.3    23  GLN23      -0.1231
     30  CA         4.0930   13.5020   20.1690 C.3    23  GLN23       0.1698
     31  C          3.4070   12.1460   20.2750 C.2    23  GLN23       0.2592
     32  O          2.3870   11.9010   19.6340 O.2    23  GLN23      -0.2718
     33  CB         3.2690   14.5540   20.9330 C.3    23  GLN23       0.0381
     34  CG         3.0810   14.2520   22.4190 C.3    23  GLN23       0.0905
     35  CD         4.3900   14.2610   23.1950 C.2    23  GLN23       0.2608
     36  OE1        5.2700   15.0870   22.9450 O.2    23  GLN23      -0.2717
     37  NE2        4.5250   13.3340   24.1360 N.am   23  GLN23      -0.0878
     38  N          3.9820   11.2690   21.0870 N.am   24  VAL24      -0.1980
     39  CA         3.4320    9.9400   21.3080 C.3    24  VAL24       0.1595
     40  C          3.3000    9.8240   22.8160 C.2    24  VAL24       0.2287
     41  O          4.2260   10.1640   23.5450 O.2    24  VAL24      -0.2864
     42  CB         4.3790    8.8310   20.7870 C.3    24  VAL24       0.0276
     43  CG1        3.8170    7.4680   21.0960 C.3    24  VAL24       0.0022
     44  CG2        4.5630    8.9600   19.2940 C.3    24  VAL24       0.0022
     45  N          0.3690    2.8730   22.3470 N.3    40  ALA40      -0.1245
     46  CA         1.0540    4.1490   22.1660 C.3    40  ALA40       0.1562
     47  C          0.1750    4.9360   21.2380 C.2    40  ALA40       0.2260
     48  O         -0.3600    4.3840   20.2950 O.2    40  ALA40      -0.2867
     49  CB         2.4110    3.9380   21.5360 C.3    40  ALA40       0.0290
     50  N         -0.1110    8.3340   18.7460 N.3    42  LYS42      -0.1245
     51  CA         0.5400    9.4290   18.0460 C.3    42  LYS42       0.1561
     52  C         -0.4930   10.4840   17.6890 C.2    42  LYS42       0.2260
     53  O         -1.5480   10.1800   17.1370 O.2    42  LYS42      -0.2867
     54  CB         1.2560    8.9170   16.7990 C.3    42  LYS42       0.0271
     55  CG         2.2650    9.8960   16.2060 C.3    42  LYS42       0.0035
     56  CD         3.2240    9.1570   15.2950 C.3    42  LYS42       0.0206
     57  CE         4.2710   10.0380   14.6740 C.3    42  LYS42       0.1093
     58  NZ         5.1130    9.2430   13.7270 N.3    42  LYS42      -0.1314
     59  N          0.7470   12.6680    8.9900 N.3    56  LEU56      -0.1245
     60  CA         0.1760   11.8060   10.0230 C.3    56  LEU56       0.1561
     61  C         -0.8880   10.8540    9.4650 C.2    56  LEU56       0.2260
     62  O         -0.8890    9.6590    9.7830 O.2    56  LEU56      -0.2867
     63  CB        -0.4300   12.6520   11.1450 C.3    56  LEU56       0.0270
     64  CG        -0.8610   11.9240   12.4250 C.3    56  LEU56       0.0019
     65  CD1        0.3460   11.2730   13.0870 C.3    56  LEU56       0.0001
     66  CD2       -1.5240   12.9080   13.3750 C.3    56  LEU56       0.0001
     67  N          0.7980    8.2810    7.1740 N.3    59  GLU59      -0.1245
     68  CA         1.4720    7.2680    7.9690 C.3    59  GLU59       0.1567
     69  C          0.4910    6.2080    8.4490 C.2    59  GLU59       0.2260
     70  O          0.8500    5.0320    8.5780 O.2    59  GLU59      -0.2867
     71  CB         2.1560    7.9310    9.1680 C.3    59  GLU59       0.0388
     72  CG         3.0720    7.0130    9.9510 C.3    59  GLU59       0.1160
     73  CD         3.9850    7.7380   10.9230 C.2    59  GLU59       0.3649
     74  OE1        3.7960    8.9560   11.1580 O.co2  59  GLU59      -0.2457
     75  OE2        4.9030    7.0720   11.4540 O.co2  59  GLU59      -0.2457
     76  N          0.1050    2.3750    7.0560 N.3    63  MET63      -0.1245
     77  CA         0.0700    1.3030    8.0300 C.3    63  MET63       0.1570
     78  C         -1.1350    0.4000    7.8030 C.2    63  MET63       0.2261
     79  O         -1.0590   -0.8180    8.0170 O.2    63  MET63      -0.2867
     80  CB         0.0630    1.8770    9.4410 C.3    63  MET63       0.0387
     81  CG         1.4530    2.2400    9.9370 C.3    63  MET63       0.0595
     82  SD         1.5530    2.6150   11.6910 S.3    63  MET63      -0.1393
     83  CE         1.7100    4.2780   11.5630 C.3    63  MET63       0.0692
     84  N          5.8350   -2.3720   14.2200 N.3    73  ILE73      -0.1245
     85  CA         4.8790   -1.7070   15.1050 C.3    73  ILE73       0.1561
     86  C          3.5670   -1.6880   14.3220 C.2    73  ILE73       0.2260
     87  O          3.4070   -0.9010   13.3840 O.2    73  ILE73      -0.2867
     88  CB         5.3330   -0.2290   15.4610 C.3    73  ILE73       0.0252
     89  CG1        6.5130   -0.2320   16.4360 C.3    73  ILE73       0.0019
     90  CG2        4.2150    0.5570   16.0990 C.3    73  ILE73       0.0019
     91  CD1        6.2380   -0.9160   17.7590 C.3    73  ILE73       0.0001
     92  N         -3.5700    8.1650   16.4830 N.3    87  VAL87      -0.1245
     93  CA        -3.1570    6.9750   15.7590 C.3    87  VAL87       0.1561
     94  C         -2.6050    5.9970   16.7900 C.2    87  VAL87       0.2260
     95  O         -1.4660    6.1150   17.2280 O.2    87  VAL87      -0.2867
     96  CB        -2.0960    7.3000   14.6900 C.3    87  VAL87       0.0252
     97  CG1       -1.8170    6.0500   13.8490 C.3    87  VAL87       0.0019
     98  CG2       -2.5770    8.4490   13.8000 C.3    87  VAL87       0.0019
     99  N         -1.0710    2.7230   18.0220 N.3    89  VAL89      -0.1231
    100  CA        -0.1690    1.6760   17.5230 C.3    89  VAL89       0.1692
    101  C          0.3440    0.8270   18.6830 C.2    89  VAL89       0.2592
    102  O          0.1550    1.1810   19.8550 O.2    89  VAL89      -0.2718
    103  CB         1.0520    2.2760   16.7780 C.3    89  VAL89       0.0266
    104  CG1        0.5880    3.1830   15.6500 C.3    89  VAL89       0.0020
    105  CG2        1.9450    3.0300   17.7520 C.3    89  VAL89       0.0020
    106  N          0.9980   -0.2890   18.3670 N.am   90  GLU90      -0.1966
    107  CA         1.5090   -1.1700   19.4130 C.3    90  GLU90       0.1733
    108  C          2.4680   -0.4800   20.3850 C.2    90  GLU90       0.2616
    109  O          3.1670    0.4720   20.0200 O.2    90  GLU90      -0.2715
    110  CB         2.1520   -2.4090   18.7980 C.3    90  GLU90       0.0429
    111  CG         1.1360   -3.3150   18.1540 C.3    90  GLU90       0.1163
    112  CD         1.7170   -4.6370   17.7150 C.2    90  GLU90       0.3649
    113  OE1        2.7650   -4.6100   17.0540 O.co2  90  GLU90      -0.2457
    114  OE2        1.1330   -5.7060   18.0140 O.co2  90  GLU90      -0.2457
    115  N          2.4850   -0.9640   21.6240 N.am   91  TYR91      -0.1960
    116  CA         3.3440   -0.4120   22.6610 C.3    91  TYR91       0.1771
    117  C          4.5780   -1.2610   22.8780 C.2    91  TYR91       0.2619
    118  O          4.4990   -2.4890   22.9740 O.2    91  TYR91      -0.2715
    119  CB         2.5860   -0.2790   23.9690 C.3    91  TYR91       0.0574
    120  CG         3.4200    0.2350   25.1170 C.ar   91  TYR91      -0.0198
    121  CD1        4.0900    1.4610   25.0340 C.ar   91  TYR91      -0.0009
    122  CD2        3.5190   -0.4940   26.2990 C.ar   91  TYR91      -0.0009
    123  CE1        4.8380    1.9440   26.1100 C.ar   91  TYR91       0.0417
    124  CE2        4.2610   -0.0320   27.3670 C.ar   91  TYR91       0.0417
    125  CZ         4.9180    1.1850   27.2720 C.ar   91  TYR91       0.1957
    126  OH         5.6720    1.6170   28.3430 O.3    91  TYR91      -0.2866
    127  N          5.7130   -0.5690   22.9530 N.am   92  ALA92      -0.1963
    128  CA         7.0320   -1.1580   23.1460 C.3    92  ALA92       0.1728
    129  C          7.5570   -0.6070   24.4730 C.2    92  ALA92       0.2617
    130  O          8.1510    0.4710   24.5210 O.2    92  ALA92      -0.2715
    131  CB         7.9440   -0.7420   21.9990 C.3    92  ALA92       0.0334
    132  N          7.3330   -1.3580   25.5430 N.am   93  SER93      -0.1936
    133  CA         7.7260   -0.9210   26.8640 C.3    93  SER93       0.2055
    134  C          9.2170   -0.7360   27.0530 C.2    93  SER93       0.2643
    135  O          9.6440    0.2260   27.6960 O.2    93  SER93      -0.2714
    136  CB         7.1990   -1.8870   27.9130 C.3    93  SER93       0.2130
    137  OG         7.8940   -3.1150   27.8700 O.3    93  SER93      -0.2179
    138  N         10.0100   -1.6470   26.4930 N.am   94  LYS94      -0.1963
    139  CA        11.4570   -1.5880   26.6460 C.3    94  LYS94       0.1728
    140  C         12.2340   -0.5950   25.8060 C.2    94  LYS94       0.2616
    141  O         13.4570   -0.6460   25.7810 O.2    94  LYS94      -0.2715
    142  CB        12.0420   -2.9800   26.5130 C.3    94  LYS94       0.0311
    143  CG        11.5460   -3.8830   27.6040 C.3    94  LYS94       0.0038
    144  CD        12.1310   -5.2680   27.4960 C.3    94  LYS94       0.0206
    145  CE        11.7580   -6.0780   28.7050 C.3    94  LYS94       0.1093
    146  NZ        12.3870   -7.4170   28.6420 N.3    94  LYS94      -0.1314
    147  N         11.5330    0.3120   25.1290 N.am   95  GLY95      -0.1955
    148  CA        12.2070    1.3130   24.3140 C.3    95  GLY95       0.1869
    149  C         12.8880    0.7790   23.0620 C.2    95  GLY95       0.2309
    150  O         12.7590   -0.4020   22.7250 O.2    95  GLY95      -0.2863
    151  N         18.9410    1.6800   23.0950 N.3    99  GLU99      -0.1245
    152  CA        18.7920    1.7970   24.5430 C.3    99  GLU99       0.1567
    153  C         18.7690    0.4070   25.1440 C.2    99  GLU99       0.2260
    154  O         19.5140    0.1150   26.0750 O.2    99  GLU99      -0.2867
    155  CB        17.4940    2.5140   24.8810 C.3    99  GLU99       0.0388
    156  CG        17.4110    3.8670   24.2460 C.3    99  GLU99       0.1160
    157  CD        16.1260    4.6030   24.5480 C.2    99  GLU99       0.3649
    158  OE1       15.0650    3.9510   24.7220 O.co2  99  GLU99      -0.2457
    159  OE2       16.1910    5.8560   24.5800 O.co2  99  GLU99      -0.2457
    160  N         11.8390   -0.8900   17.9700 N.3   144  LEU144     -0.1245
    161  CA        11.3870   -0.8500   19.3580 C.3   144  LEU144      0.1561
    162  C         11.3200   -2.2730   19.9290 C.2   144  LEU144      0.2260
    163  O         11.1910   -3.2400   19.1790 O.2   144  LEU144     -0.2867
    164  CB        10.0340   -0.1210   19.4630 C.3   144  LEU144      0.0270
    165  CG        10.0340    1.3720   19.0660 C.3   144  LEU144      0.0019
    166  CD1        8.6480    1.8430   18.8490 C.3   144  LEU144      0.0001
    167  CD2       10.6980    2.2380   20.0970 C.3   144  LEU144      0.0001
    168  N          9.9050    0.3300   13.5970 N.3   154  ALA154     -0.1231
    169  CA         9.0770    1.5290   13.6500 C.3   154  ALA154      0.1694
    170  C          9.3670    2.5330   12.5560 C.2   154  ALA154      0.2592
    171  O         10.4440    2.5490   11.9870 O.2   154  ALA154     -0.2718
    172  CB         9.2430    2.2040   15.0140 C.3   154  ALA154      0.0304
    173  N          8.3870    3.3760   12.2750 N.am  155  ASP155     -0.1960
    174  CA         8.5160    4.4410   11.2890 C.3   155  ASP155      0.1840
    175  C          8.8070    4.0080    9.8660 C.2   155  ASP155      0.2622
    176  O          9.5490    4.6810    9.1480 O.2   155  ASP155     -0.2715
    177  CB         9.5580    5.4620   11.7550 C.3   155  ASP155      0.1450
    178  CG         9.1510    6.1750   13.0440 C.2   155  ASP155      0.3671
    179  OD1        8.4860    5.5580   13.9060 O.co2 155  ASP155     -0.2456
    180  OD2        9.4980    7.3660   13.1980 O.co2 155  ASP155     -0.2456
    181  N          8.2090    2.8880    9.4670 N.am  156  PHE156     -0.1960
    182  CA         8.3660    2.3270    8.1230 C.3   156  PHE156      0.1771
    183  C          7.4620    2.9710    7.0640 C.2   156  PHE156      0.2620
    184  O          7.8430    3.0610    5.8930 O.2   156  PHE156     -0.2715
    185  CB         8.1420    0.8170    8.1520 C.3   156  PHE156      0.0574
    186  CG         6.8430    0.4020    8.7860 C.ar  156  PHE156     -0.0200
    187  CD1        5.7010    0.2520    8.0210 C.ar  156  PHE156     -0.0042
    188  CD2        6.7810    0.0950   10.1300 C.ar  156  PHE156     -0.0042
    189  CE1        4.5140   -0.2060    8.5840 C.ar  156  PHE156     -0.0003
    190  CE2        5.6050   -0.3610   10.7010 C.ar  156  PHE156     -0.0003
    191  CZ         4.4670   -0.5150    9.9230 C.ar  156  PHE156     -0.0000
    192  N          6.2690    3.4070    7.4700 N.am  157  GLY157     -0.1954
    193  CA         5.3500    4.0560    6.5440 C.3   157  GLY157      0.1869
    194  C          5.4280    5.5670    6.6650 C.2   157  GLY157      0.2309
    195  O          4.5570    6.2930    6.1990 O.2   157  GLY157     -0.2863
@<TRIPOS>BOND
     1   184   183    2
     2   195   194    2
     3   193   194    1
     4   193   192    1
     5    76    77    1
     6   183   192   am
     7   183   182    1
     8    67    68    1
     9    78    79    2
    10    78    77    1
    11    68    69    1
    12    68    71    1
    13   187   189   ar
    14   187   186   ar
    15    77    80    1
    16   182   185    1
    17   182   181    1
    18   185   186    1
    19    69    70    2
    20   189   191   ar
    21   186   188   ar
    22    59    60    1
    23   176   175    2
    24    71    72    1
    25    80    81    1
    26    61    62    2
    27    61    60    1
    28   181   175   am
    29   175   174    1
    30   191   190   ar
    31    81    82    1
    32    72    73    1
    33    60    63    1
    34   188   190   ar
    35    73    74   ar
    36    73    75   ar
    37    63    64    1
    38   174   177    1
    39   174   173    1
    40    83    82    1
    41   177   178    1
    42   171   170    2
    43   173   170   am
    44    64    65    1
    45    64    66    1
    46   170   169    1
    47   178   180   ar
    48   178   179   ar
    49    87    86    2
    50   168   169    1
    51   169   172    1
    52    58    57    1
    53    98    96    1
    54    97    96    1
    55    84    85    1
    56    86    85    1
    57    57    56    1
    58    96    93    1
    59    85    88    1
    60    56    55    1
    61    88    90    1
    62    88    89    1
    63   104   103    1
    64    93    92    1
    65    93    94    1
    66    55    54    1
    67    89    91    1
    68   103   100    1
    69   103   105    1
    70    94    95    2
    71    54    51    1
    72   113   112   ar
    73    53    52    2
    74   100    99    1
    75   100   101    1
    76    52    51    1
    77   112   114   ar
    78   112   111    1
    79   160   161    1
    80    51    50    1
    81   111   110    1
    82   106   101   am
    83   106   107    1
    84   101   102    2
    85    29    30    1
    86   110   107    1
    87   166   165    1
    88   165   164    1
    89   165   167    1
    90   163   162    2
    91    44    42    1
    92   161   164    1
    93   161   162    1
    94   107   108    1
    95    32    31    2
    96   109   108    2
    97    30    31    1
    98    30    33    1
    99    31    38   am
   100    48    47    2
   101   108   115   am
   102    42    43    1
   103    42    39    1
   104    33    34    1
   105    38    39    1
   106    47    46    1
   107    39    40    1
   108    49    46    1
   109   115   116    1
   110   131   128    1
   111    28    27    2
   112    46    45    1
   113    34    35    1
   114    27    26    1
   115   116   117    1
   116   116   119    1
   117   150   149    2
   118    40    41    2
   119   117   127   am
   120   117   118    2
   121    36    35    2
   122   127   128    1
   123   149   148    1
   124   151   152    1
   125   128   129    1
   126    35    37   am
   127    26    25    1
   128   119   120    1
   129   156   157    1
   130   156   155    1
   131   148   147    1
   132    23    22    1
   133    25    19   am
   134   129   130    2
   135   129   132   am
   136   152   155    1
   137   152   153    1
   138   157   159   ar
   139   157   158   ar
   140    21    22    1
   141    21    18    1
   142   121   120   ar
   143   121   123   ar
   144    19    20    2
   145    19    18    1
   146   120   122   ar
   147   147   140   am
   148   153   154    2
   149    22    24    1
   150   132   133    1
   151    18    17    1
   152   141   140    2
   153   140   139    1
   154    17    12   am
   155   123   125   ar
   156   122   124   ar
   157   138   139    1
   158   138   134   am
   159   142   139    1
   160   142   143    1
   161   133   134    1
   162   133   136    1
   163   134   135    2
   164    12    11    1
   165    12    13    2
   166   125   124   ar
   167   125   126    1
   168    11    14    1
   169    11    10    1
   170    14    15    1
   171   144   143    1
   172   144   145    1
   173   137   136    1
   174     4     3    2
   175    15    16    1
   176    10     3   am
   177    10    16    1
   178   146   145    1
   179     3     2    1
   180     2     1    1
   181     2     5    1
   182     8     9    1
   183     8     7    1
   184     6     5    1
   185     6     7    1
