@<TRIPOS>MOLECULE
tmp/2fgiB00.pdb
 202 192 0 0 0
SMALL
GASTEIGER

@<TRIPOS>ATOM
      1  N         66.5920    6.0440    1.3960 N.3    24  LEU24      -0.1231
      2  CA        65.4580    5.3900    2.0530 C.3    24  LEU24       0.1693
      3  C         64.2390    6.3180    2.1120 C.2    24  LEU24       0.2593
      4  O         63.0950    5.8560    2.1040 O.2    24  LEU24      -0.2718
      5  CB        65.8520    4.9290    3.4630 C.3    24  LEU24       0.0284
      6  CG        66.9540    3.8600    3.5420 C.3    24  LEU24       0.0019
      7  CD1       67.4060    3.6350    4.9820 C.3    24  LEU24       0.0001
      8  CD2       66.4520    2.5650    2.9360 C.3    24  LEU24       0.0001
      9  N         64.5030    7.6220    2.1660 N.am   25  GLY25      -0.1942
     10  CA        63.4500    8.6200    2.2170 C.3    25  GLY25       0.2014
     11  C         64.0230    9.9850    2.5580 C.2    25  GLY25       0.2638
     12  O         65.2310   10.2070    2.4360 O.2    25  GLY25      -0.2714
     13  N         63.1750   10.8870    3.0420 N.am   26  GLU26      -0.1977
     14  CA        63.6070   12.2400    3.3990 C.3    26  GLU26       0.1602
     15  C         62.5950   12.9330    4.3180 C.2    26  GLU26       0.2287
     16  O         61.5730   12.3540    4.6950 O.2    26  GLU26      -0.2864
     17  CB        63.8230   13.0900    2.1320 C.3    26  GLU26       0.0415
     18  CG        62.5670   13.2220    1.2890 C.3    26  GLU26       0.1163
     19  CD        62.7840   14.0140    0.0130 C.2    26  GLU26       0.3649
     20  OE1       63.9570   14.4030   -0.2570 O.co2  26  GLU26      -0.2457
     21  OE2       61.8050   14.2620   -0.7170 O.co2  26  GLU26      -0.2457
     22  N         64.0370   18.1190    8.1120 N.3    29  PHE29      -0.1241
     23  CA        65.3970   18.1680    8.6500 C.3    29  PHE29       0.1605
     24  C         66.4900   17.8720    7.6260 C.2    29  PHE29       0.2264
     25  O         67.3350   18.7180    7.3280 O.2    29  PHE29      -0.2867
     26  CB        65.4910   17.1330    9.7640 C.3    29  PHE29       0.0534
     27  CG        65.1610   15.7490    9.2870 C.ar   29  PHE29      -0.0203
     28  CD1       63.8320   15.3850    9.0580 C.ar   29  PHE29      -0.0042
     29  CD2       66.1700   14.8360    8.9950 C.ar   29  PHE29      -0.0042
     30  CE1       63.5150   14.1310    8.5430 C.ar   29  PHE29      -0.0003
     31  CE2       65.8680   13.5780    8.4860 C.ar   29  PHE29      -0.0003
     32  CZ        64.5320   13.2190    8.2570 C.ar   29  PHE29      -0.0000
     33  N         67.9080   10.5830    4.6760 N.3    32  VAL32      -0.1245
     34  CA        68.4170    9.2810    5.0680 C.3    32  VAL32       0.1561
     35  C         68.6170    8.4700    3.7960 C.2    32  VAL32       0.2260
     36  O         67.7940    8.5130    2.8860 O.2    32  VAL32      -0.2867
     37  CB        67.4110    8.5560    6.0060 C.3    32  VAL32       0.0252
     38  CG1       67.9160    7.1680    6.3890 C.3    32  VAL32       0.0019
     39  CG2       67.1630    9.3920    7.2520 C.3    32  VAL32       0.0019
     40  N         72.1060    2.8000    7.6980 N.3    48  ALA48      -0.1245
     41  CA        71.3040    3.9150    7.2180 C.3    48  ALA48       0.1562
     42  C         72.1380    5.1170    7.5820 C.2    48  ALA48       0.2260
     43  O         72.7110    5.1590    8.6740 O.2    48  ALA48      -0.2867
     44  CB        69.9630    3.9760    7.9230 C.3    48  ALA48       0.0290
     45  N         72.0690    9.2440    7.9800 N.3    50  LYS50      -0.1245
     46  CA        71.2710   10.4550    8.0140 C.3    50  LYS50       0.1561
     47  C         72.2540   11.5920    7.7130 C.2    50  LYS50       0.2260
     48  O         73.4230   11.5220    8.0950 O.2    50  LYS50      -0.2867
     49  CB        70.5950   10.6450    9.3770 C.3    50  LYS50       0.0271
     50  CG        69.5810   11.7650    9.3630 C.3    50  LYS50       0.0035
     51  CD        68.8860   11.9270   10.6740 C.3    50  LYS50       0.0206
     52  CE        67.3910   12.0250   10.4640 C.3    50  LYS50       0.1093
     53  NZ        66.6120   12.3960   11.6860 N.3    50  LYS50      -0.1314
     54  N         70.9020   18.0860   13.8230 N.3    64  LEU64      -0.1245
     55  CA        71.3930   16.7640   13.4530 C.3    64  LEU64       0.1561
     56  C         72.5320   16.3640   14.3790 C.2    64  LEU64       0.2260
     57  O         72.7110   15.1750   14.6820 O.2    64  LEU64      -0.2867
     58  CB        71.8550   16.7330   11.9860 C.3    64  LEU64       0.0270
     59  CG        72.2580   15.3570   11.4100 C.3    64  LEU64       0.0019
     60  CD1       71.1730   14.3430   11.7310 C.3    64  LEU64       0.0001
     61  CD2       72.5320   15.4160    9.9050 C.3    64  LEU64       0.0001
     62  N         71.0190   15.4850   17.7400 N.3    67  GLU67      -0.1245
     63  CA        70.4170   14.1550   17.6500 C.3    67  GLU67       0.1567
     64  C         71.4770   13.0360   17.7890 C.2    67  GLU67       0.2260
     65  O         71.2120   11.9960   18.3880 O.2    67  GLU67      -0.2867
     66  CB        69.6460   14.0080   16.3240 C.3    67  GLU67       0.0388
     67  CG        69.0550   12.6240   16.0740 C.3    67  GLU67       0.1160
     68  CD        68.1180   12.5800   14.8720 C.2    67  GLU67       0.3649
     69  OE1       68.0250   13.5870   14.1330 O.co2  67  GLU67      -0.2457
     70  OE2       67.4510   11.5330   14.6740 O.co2  67  GLU67      -0.2457
     71  N         71.9980   10.3610   21.0010 N.3    71  MET71      -0.1245
     72  CA        72.0840    8.9200   20.7960 C.3    71  MET71       0.1570
     73  C         73.3250    8.4360   21.5400 C.2    71  MET71       0.2261
     74  O         73.3510    7.3220   22.0620 O.2    71  MET71      -0.2867
     75  CB        72.2110    8.6080   19.2950 C.3    71  MET71       0.0387
     76  CG        71.1810    7.6130   18.7570 C.3    71  MET71       0.0595
     77  SD        70.8150    7.8650   17.0150 S.3    71  MET71      -0.1393
     78  CE        70.4070    9.5160   17.0120 C.3    71  MET71       0.0692
     79  N         67.1240    1.9830   17.5380 N.3    81  ILE81      -0.1245
     80  CA        67.9940    2.1740   16.3720 C.3    81  ILE81       0.1561
     81  C         69.2700    2.7940   16.9430 C.2    81  ILE81       0.2260
     82  O         69.2570    3.9310   17.4160 O.2    81  ILE81      -0.2867
     83  CB        67.3480    3.1310   15.3340 C.3    81  ILE81       0.0252
     84  CG1       66.1870    2.4190   14.6170 C.3    81  ILE81       0.0019
     85  CG2       68.3940    3.6310   14.3220 C.3    81  ILE81       0.0019
     86  CD1       66.6060    1.2260   13.7370 C.3    81  ILE81       0.0001
     87  N         75.4580   10.7820   10.0180 N.3    95  VAL95      -0.1245
     88  CA        75.0690   10.0530   11.2170 C.3    95  VAL95       0.1561
     89  C         74.7410    8.6180   10.7590 C.2    95  VAL95       0.2260
     90  O         73.6890    8.3430   10.1900 O.2    95  VAL95      -0.2867
     91  CB        73.8720   10.7460   11.9180 C.3    95  VAL95       0.0252
     92  CG1       73.5020    9.9980   13.1950 C.3    95  VAL95       0.0019
     93  CG2       74.2360   12.2020   12.2600 C.3    95  VAL95       0.0019
     94  N         73.6180    5.0270   11.3280 N.3    97  VAL97      -0.1231
     95  CA        72.8710    4.1790   12.2590 C.3    97  VAL97       0.1692
     96  C         72.5180    2.7760   11.6970 C.2    97  VAL97       0.2592
     97  O         72.9150    2.4280   10.5760 O.2    97  VAL97      -0.2718
     98  CB        71.6030    4.8990   12.7480 C.3    97  VAL97       0.0266
     99  CG1       71.9780    6.0210   13.6850 C.3    97  VAL97       0.0020
    100  CG2       70.8220    5.4440   11.5610 C.3    97  VAL97       0.0020
    101  N         71.7850    1.9750   12.4750 N.am   98  GLU98      -0.1966
    102  CA        71.3970    0.6210   12.0600 C.3    98  GLU98       0.1733
    103  C         70.3340    0.6250   10.9650 C.2    98  GLU98       0.2616
    104  O         69.4690    1.5080   10.9240 O.2    98  GLU98      -0.2715
    105  CB        70.8950   -0.1970   13.2610 C.3    98  GLU98       0.0429
    106  CG        71.9230   -0.3960   14.3750 C.3    98  GLU98       0.1163
    107  CD        71.3920   -1.2220   15.5450 C.2    98  GLU98       0.3649
    108  OE1       70.3330   -0.8900   16.1050 O.co2  98  GLU98      -0.2457
    109  OE2       72.0500   -2.2040   15.9290 O.co2  98  GLU98      -0.2457
    110  N         70.4110   -0.3680   10.0830 N.am   99  TYR99      -0.1960
    111  CA        69.4790   -0.5190    8.9680 C.3    99  TYR99       0.1771
    112  C         68.3440   -1.5050    9.2690 C.2    99  TYR99       0.2619
    113  O         68.5770   -2.6490    9.6790 O.2    99  TYR99      -0.2715
    114  CB        70.2220   -0.9790    7.7200 C.3    99  TYR99       0.0574
    115  CG        69.3340   -1.1600    6.5120 C.ar   99  TYR99      -0.0198
    116  CD1       68.5030   -0.1250    6.0730 C.ar   99  TYR99      -0.0009
    117  CD2       69.3330   -2.3530    5.7950 C.ar   99  TYR99      -0.0009
    118  CE1       67.7030   -0.2700    4.9530 C.ar   99  TYR99       0.0417
    119  CE2       68.5300   -2.5080    4.6680 C.ar   99  TYR99       0.0417
    120  CZ        67.7190   -1.4620    4.2590 C.ar   99  TYR99       0.1957
    121  OH        66.9090   -1.6060    3.1590 O.3    99  TYR99      -0.2866
    122  N         67.1190   -1.0380    9.0490 N.am  100  ALA100     -0.1963
    123  CA        65.9070   -1.8030    9.2830 C.3   100  ALA100      0.1728
    124  C         65.2830   -2.1440    7.9380 C.2   100  ALA100      0.2617
    125  O         64.5200   -1.3540    7.3810 O.2   100  ALA100     -0.2715
    126  CB        64.9430   -0.9800   10.1180 C.3   100  ALA100      0.0334
    127  N         65.6090   -3.3320    7.4350 N.am  101  SER101     -0.1936
    128  CA        65.1450   -3.8030    6.1300 C.3   101  SER101      0.2055
    129  C         63.6490   -3.9540    5.9230 C.2   101  SER101      0.2643
    130  O         63.1830   -3.9780    4.7860 O.2   101  SER101     -0.2714
    131  CB        65.8210   -5.1230    5.7810 C.3   101  SER101      0.2130
    132  OG        65.5580   -6.0840    6.7810 O.3   101  SER101     -0.2179
    133  N         62.8890   -4.0590    7.0030 N.am  102  LYS102     -0.1963
    134  CA        61.4520   -4.2260    6.8430 C.3   102  LYS102      0.1728
    135  C         60.6170   -3.0010    7.2030 C.2   102  LYS102      0.2616
    136  O         59.4450   -3.1210    7.5790 O.2   102  LYS102     -0.2715
    137  CB        60.9860   -5.4870    7.5820 C.3   102  LYS102      0.0311
    138  CG        61.5720   -6.7660    6.9820 C.3   102  LYS102      0.0038
    139  CD        61.4530   -7.9260    7.9340 C.3   102  LYS102      0.0206
    140  CE        62.0640   -9.1700    7.3240 C.3   102  LYS102      0.1093
    141  NZ        62.0570  -10.3260    8.2760 N.3   102  LYS102     -0.1314
    142  N         61.2300   -1.8250    7.0770 N.am  103  GLY103     -0.1955
    143  CA        60.5490   -0.5740    7.3700 C.3   103  GLY103      0.1869
    144  C         59.8370   -0.4850    8.7130 C.2   103  GLY103      0.2309
    145  O         60.0150   -1.3410    9.5820 O.2   103  GLY103     -0.2863
    146  N         53.7640   -0.5770    8.2560 N.3   107  GLU107     -0.1231
    147  CA        53.9090   -1.1830    6.9400 C.3   107  GLU107      0.1699
    148  C         54.1620   -2.6730    7.0890 C.2   107  GLU107      0.2592
    149  O         53.6170   -3.4800    6.3410 O.2   107  GLU107     -0.2718
    150  CB        55.0870   -0.5520    6.2090 C.3   107  GLU107      0.0402
    151  CG        55.0210    0.9650    6.1430 C.3   107  GLU107      0.1161
    152  CD        56.1590    1.5650    5.3510 C.2   107  GLU107      0.3649
    153  OE1       57.1810    0.8680    5.1260 O.co2 107  GLU107     -0.2457
    154  OE2       56.0220    2.7440    4.9500 O.co2 107  GLU107     -0.2457
    155  N         54.9950   -3.0180    8.0640 N.am  108  TYR108     -0.1976
    156  CA        55.3470   -4.3990    8.3530 C.3   108  TYR108      0.1639
    157  C         54.1010   -5.2510    8.6220 C.2   108  TYR108      0.2290
    158  O         53.9010   -6.3130    8.0070 O.2   108  TYR108     -0.2864
    159  CB        56.2590   -4.4340    9.5800 C.3   108  TYR108      0.0560
    160  CG        56.6480   -5.8240   10.0460 C.ar  108  TYR108     -0.0198
    161  CD1       57.6940   -6.5180    9.4360 C.ar  108  TYR108     -0.0009
    162  CD2       56.0100   -6.4170   11.1410 C.ar  108  TYR108     -0.0009
    163  CE1       58.0960   -7.7620    9.9020 C.ar  108  TYR108      0.0417
    164  CE2       56.4000   -7.6560   11.6110 C.ar  108  TYR108      0.0417
    165  CZ        57.4490   -8.3210   10.9900 C.ar  108  TYR108      0.1957
    166  OH        57.8520   -9.5480   11.4690 O.3   108  TYR108     -0.2866
    167  N         61.0380    0.5590   13.7780 N.3   150  LEU150     -0.1245
    168  CA        61.5720   -0.0050   12.5510 C.3   150  LEU150      0.1561
    169  C         61.8990   -1.4680   12.8150 C.2   150  LEU150      0.2260
    170  O         62.2780   -1.8320   13.9210 O.2   150  LEU150     -0.2867
    171  CB        62.8210    0.7670   12.1440 C.3   150  LEU150      0.0270
    172  CG        62.5730    2.2630   11.9610 C.3   150  LEU150      0.0019
    173  CD1       63.8670    2.9680   11.6960 C.3   150  LEU150      0.0001
    174  CD2       61.6090    2.4950   10.8180 C.3   150  LEU150      0.0001
    175  N         62.6560    4.2760   16.9370 N.3   160  ALA160     -0.1231
    176  CA        63.3660    5.2650   16.1310 C.3   160  ALA160      0.1694
    177  C         62.9170    6.6780   16.4840 C.2   160  ALA160      0.2592
    178  O         61.8610    6.8550   17.0620 O.2   160  ALA160     -0.2718
    179  CB        63.1290    5.0000   14.6540 C.3   160  ALA160      0.0304
    180  N         63.7210    7.6750   16.1310 N.am  161  ASP161     -0.1960
    181  CA        63.4100    9.0860   16.3990 C.3   161  ASP161      0.1840
    182  C         63.2800    9.5050   17.8540 C.2   161  ASP161      0.2622
    183  O         62.7080   10.5450   18.1560 O.2   161  ASP161     -0.2715
    184  CB        62.1580    9.5270   15.6320 C.3   161  ASP161      0.1450
    185  CG        62.4380    9.8060   14.1560 C.2   161  ASP161      0.3671
    186  OD1       63.6320    9.8750   13.7550 O.co2 161  ASP161     -0.2456
    187  OD2       61.4510    9.9770   13.4010 O.co2 161  ASP161     -0.2456
    188  N         63.8220    8.6990   18.7540 N.am  162  PHE162     -0.1960
    189  CA        63.7530    8.9840   20.1850 C.3   162  PHE162      0.1771
    190  C         64.6340   10.1500   20.6340 C.2   162  PHE162      0.2620
    191  O         64.3900   10.7290   21.6980 O.2   162  PHE162     -0.2715
    192  CB        64.1200    7.7320   20.9860 C.3   162  PHE162      0.0574
    193  CG        65.4720    7.1660   20.6420 C.ar  162  PHE162     -0.0200
    194  CD1       65.6100    6.2220   19.6300 C.ar  162  PHE162     -0.0042
    195  CD2       66.6010    7.5580   21.3390 C.ar  162  PHE162     -0.0042
    196  CE1       66.8450    5.6770   19.3210 C.ar  162  PHE162     -0.0003
    197  CE2       67.8410    7.0200   21.0390 C.ar  162  PHE162     -0.0003
    198  CZ        67.9650    6.0740   20.0280 C.ar  162  PHE162     -0.0000
    199  N         65.6500   10.4810   19.8290 N.am  163  GLY163     -0.1954
    200  CA        66.5670   11.5580   20.1690 C.3   163  GLY163      0.1869
    201  C         66.3880   12.8310   19.3600 C.2   163  GLY163      0.2309
    202  O         67.2410   13.7300   19.4090 O.2   163  GLY163     -0.2863
@<TRIPOS>BOND
     1    21    19   ar
     2    20    19   ar
     3    19    18    1
     4    18    17    1
     5     1     2    1
     6     2     3    1
     7     2     5    1
     8     4     3    2
     9     3     9   am
    10    17    14    1
    11     9    10    1
    12    10    11    1
    13    12    11    2
    14    11    13   am
    15    36    35    2
    16     8     6    1
    17    13    14    1
    18   121   120    1
    19    14    15    1
    20     5     6    1
    21     6     7    1
    22    35    34    1
    23   120   119   ar
    24   120   118   ar
    25    15    16    2
    26   119   117   ar
    27    33    34    1
    28   130   129    2
    29   154   152   ar
    30   118   116   ar
    31    34    37    1
    32   153   152   ar
    33   152   151    1
    34   131   128    1
    35   131   132    1
    36   117   115   ar
    37   129   128    1
    38   129   133   am
    39    37    38    1
    40    37    39    1
    41   116   115   ar
    42   128   127    1
    43   151   150    1
    44   150   147    1
    45   149   148    2
    46   115   114    1
    47   134   133    1
    48   134   135    1
    49   134   137    1
    50   147   148    1
    51   147   146    1
    52   138   137    1
    53   138   139    1
    54   142   135   am
    55   142   143    1
    56   148   155   am
    57   135   136    2
    58    41    42    1
    59    41    40    1
    60    41    44    1
    61   140   139    1
    62   140   141    1
    63    25    24    2
    64   143   144    1
    65   125   124    2
    66   127   124   am
    67    42    43    2
    68    24    23    1
    69    47    46    1
    70    47    48    2
    71   114   111    1
    72   124   123    1
    73    45    46    1
    74   158   157    2
    75    46    49    1
    76   155   156    1
    77    22    23    1
    78    32    31   ar
    79    32    30   ar
    80   156   157    1
    81   156   159    1
    82    31    29   ar
    83    30    28   ar
    84    23    26    1
    85   144   145    2
    86   111   112    1
    87   111   110    1
    88    29    27   ar
    89   122   112   am
    90   122   123    1
    91    28    27   ar
    92   112   113    2
    93   123   126    1
    94    27    26    1
    95    50    49    1
    96    50    51    1
    97   161   163   ar
    98   161   160   ar
    99   159   160    1
   100   163   165   ar
   101    61    59    1
   102    87    88    1
   103   160   162   ar
   104   110   103   am
   105    90    89    2
   106    52    51    1
   107    52    53    1
   108    97    96    2
   109    89    88    1
   110   174   172    1
   111   104   103    2
   112   103   102    1
   113   165   166    1
   114   165   164   ar
   115   162   164   ar
   116    88    91    1
   117    94    95    1
   118    59    60    1
   119    59    58    1
   120   100    98    1
   121   173   172    1
   122    96    95    1
   123    96   101   am
   124    91    93    1
   125    91    92    1
   126   172   171    1
   127    58    55    1
   128   102   101    1
   129   102   105    1
   130   171   168    1
   131    95    98    1
   132   168   169    1
   133   168   167    1
   134    98    99    1
   135   169   170    2
   136   105   106    1
   137   187   185   ar
   138    55    54    1
   139    55    56    1
   140    86    84    1
   141   186   185   ar
   142    69    68   ar
   143   185   184    1
   144    85    83    1
   145   106   107    1
   146    56    57    2
   147    84    83    1
   148   179   176    1
   149    70    68   ar
   150    68    67    1
   151    83    80    1
   152   107   109   ar
   153   107   108   ar
   154   184   181    1
   155    67    66    1
   156   180   181    1
   157   180   177   am
   158   176   177    1
   159   176   175    1
   160    66    63    1
   161    80    81    1
   162    80    79    1
   163   181   182    1
   164   177   178    2
   165    81    82    2
   166    78    77    1
   167    77    76    1
   168    63    62    1
   169    63    64    1
   170    64    65    2
   171   182   183    2
   172   182   188   am
   173   188   189    1
   174    76    75    1
   175    75    72    1
   176   196   194   ar
   177   196   198   ar
   178   201   202    2
   179   201   200    1
   180   194   193   ar
   181   199   200    1
   182   199   190   am
   183   198   197   ar
   184   189   190    1
   185   189   192    1
   186   190   191    2
   187   193   192    1
   188   193   195   ar
   189    72    71    1
   190    72    73    1
   191   197   195   ar
   192    73    74    2
