@<TRIPOS>MOLECULE
tmp/2fgjA01.pdb
 64 60 0 0 0
SMALL
GASTEIGER

@<TRIPOS>ATOM
      1  N          2.2280   21.7980   18.2910 N.3   125  LEU125     -0.1245
      2  CA         3.6430   21.7070   18.6690 C.3   125  LEU125      0.1561
      3  C          4.1740   23.0410   19.1790 C.2   125  LEU125      0.2260
      4  O          3.6950   24.1050   18.7810 O.2   125  LEU125     -0.2867
      5  CB         4.5010   21.2210   17.4970 C.3   125  LEU125      0.0270
      6  CG         4.2880   19.7910   16.9910 C.3   125  LEU125      0.0019
      7  CD1        4.9500   19.6090   15.6300 C.3   125  LEU125      0.0001
      8  CD2        4.8020   18.7620   17.9860 C.3   125  LEU125      0.0001
      9  N         12.9940   16.2710   17.7260 N.3   138  ALA138     -0.1231
     10  CA        11.7820   15.6950   18.3180 C.3   138  ALA138      0.1694
     11  C         11.0230   14.8050   17.3340 C.2   138  ALA138      0.2593
     12  O         10.4510   15.2980   16.3560 O.2   138  ALA138     -0.2718
     13  CB        10.8710   16.7990   18.8670 C.3   138  ALA138      0.0304
     14  N         11.0310   13.4990   17.6100 N.am  139  GLY139     -0.1942
     15  CA        10.3930   12.4990   16.7610 C.3   139  GLY139      0.2014
     16  C          8.8830   12.6280   16.6630 C.2   139  GLY139      0.2639
     17  O          8.2580   13.3650   17.4260 O.2   139  GLY139     -0.2714
     18  N          8.3010   11.9070   15.7090 N.am  140  LEU140     -0.1963
     19  CA         6.8530   11.8960   15.5030 C.3   140  LEU140      0.1728
     20  C          6.3350   10.4660   15.3460 C.2   140  LEU140      0.2617
     21  O          7.1220    9.5130   15.2810 O.2   140  LEU140     -0.2715
     22  CB         6.4820   12.7250   14.2720 C.3   140  LEU140      0.0311
     23  CG         6.8170   14.2200   14.2640 C.3   140  LEU140      0.0022
     24  CD1        6.6730   14.7750   12.8630 C.3   140  LEU140      0.0001
     25  CD2        5.9490   15.0030   15.2510 C.3   140  LEU140      0.0001
     26  N          5.0140   10.3140   15.2950 N.am  141  SER141     -0.1936
     27  CA         4.4150    9.0110   14.9990 C.3   141  SER141      0.2055
     28  C          4.5700    8.6970   13.5150 C.2   141  SER141      0.2644
     29  O          4.8870    9.5890   12.7140 O.2   141  SER141     -0.2714
     30  CB         2.9360    8.9920   15.3870 C.3   141  SER141      0.2130
     31  OG         2.1770    9.8290   14.5320 O.3   141  SER141     -0.2179
     32  N          4.3570    7.4320   13.1570 N.am  142  GLY142     -0.1939
     33  CA         4.3590    7.0200   11.7600 C.3   142  GLY142      0.2014
     34  C          3.3520    7.8330   10.9670 C.2   142  GLY142      0.2639
     35  O          3.6970    8.4840    9.9800 O.2   142  GLY142     -0.2714
     36  N          2.1070    7.8170   11.4360 N.am  143  GLY143     -0.1939
     37  CA         0.9990    8.5010   10.7750 C.3   143  GLY143      0.2014
     38  C          1.2280    9.9800   10.5590 C.2   143  GLY143      0.2638
     39  O          0.9520   10.4970    9.4730 O.2   143  GLY143     -0.2714
     40  N          1.7310   10.6540   11.5940 N.am  144  GLN144     -0.1977
     41  CA         2.0810   12.0780   11.5120 C.3   144  GLN144      0.1601
     42  C          3.1860   12.3320   10.4810 C.2   144  GLN144      0.2287
     43  O          3.0460   13.2060    9.6210 O.2   144  GLN144     -0.2864
     44  CB         2.4820   12.6270   12.8920 C.3   144  GLN144      0.0394
     45  CG         1.2960   12.8770   13.8330 C.3   144  GLN144      0.0908
     46  CD         1.6950   13.0410   15.2930 C.2   144  GLN144      0.2608
     47  OE1        2.8630   12.8690   15.6550 O.2   144  GLN144     -0.2717
     48  NE2        0.7230   13.3740   16.1360 N.am  144  GLN144     -0.0878
     49  N          1.8300   11.9950    7.1110 N.3   147  ARG147     -0.1245
     50  CA         1.0180   13.1400    6.7010 C.3   147  ARG147      0.1563
     51  C          1.8440   14.3320    6.2070 C.2   147  ARG147      0.2260
     52  O          1.4030   15.0640    5.3160 O.2   147  ARG147     -0.2867
     53  CB         0.0570   13.5450    7.8210 C.3   147  ARG147      0.0307
     54  CG        -1.2150   12.6900    7.8500 C.3   147  ARG147      0.0489
     55  CD        -1.6340   12.2010    9.2300 C.3   147  ARG147      0.2205
     56  NE        -2.1070   13.2840   10.0820 N.pl3 147  ARG147     -0.0865
     57  CZ        -2.3060   13.1940   11.3920 C.cat 147  ARG147      0.5346
     58  NH1       -2.0770   12.0590   12.0350 N.pl3 147  ARG147      0.1354
     59  NH2       -2.7390   14.2530   12.0620 N.pl3 147  ARG147      0.1354
     60  N         -1.2030    2.5100    6.7480 N.3   169  ALA169     -0.1245
     61  CA        -0.9900    2.4900    8.1990 C.3   169  ALA169      0.1562
     62  C         -1.6710    3.6710    8.8930 C.2   169  ALA169      0.2260
     63  O         -1.4310    3.9420   10.0690 O.2   169  ALA169     -0.2867
     64  CB         0.5150    2.4440    8.5280 C.3   169  ALA169      0.0290
@<TRIPOS>BOND
     1    52    51    2
     2    51    50    1
     3    50    49    1
     4    50    53    1
     5    60    61    1
     6    53    54    1
     7    54    55    1
     8    61    64    1
     9    61    62    1
    10    62    63    2
    11    55    56    1
    12    39    38    2
    13    43    42    2
    14    35    34    2
    15    56    57    2
    16    42    41    1
    17    38    37    1
    18    38    40   am
    19    37    36    1
    20    34    36   am
    21    34    33    1
    22    57    58    1
    23    57    59    1
    24    41    40    1
    25    41    44    1
    26    33    32    1
    27    29    28    2
    28    24    23    1
    29    44    45    1
    30    32    28   am
    31    28    27    1
    32    45    46    1
    33    23    22    1
    34    23    25    1
    35    22    19    1
    36    31    30    1
    37    27    26    1
    38    27    30    1
    39    21    20    2
    40    46    47    2
    41    46    48   am
    42    26    20   am
    43    20    19    1
    44    19    18    1
    45     7     6    1
    46    18    16   am
    47    12    11    2
    48    16    15    1
    49    16    17    2
    50    15    14    1
    51     6     5    1
    52     6     8    1
    53    11    14   am
    54    11    10    1
    55     5     2    1
    56     9    10    1
    57     1     2    1
    58    10    13    1
    59     2     3    1
    60     4     3    2
