@<TRIPOS>MOLECULE
tmp/2fgjA00.pdb
 123 117 0 0 0
SMALL
GASTEIGER

@<TRIPOS>ATOM
      1  N         12.9670   -7.8930  -14.4340 N.3    11  TYR11      -0.1227
      2  CA        13.9720   -7.0080  -13.8460 C.3    11  TYR11       0.1736
      3  C         15.3890   -7.2360  -14.3600 C.2    11  TYR11       0.2595
      4  O         16.1980   -6.3060  -14.3820 O.2    11  TYR11      -0.2718
      5  CB        13.9530   -7.1270  -12.3280 C.3    11  TYR11       0.0548
      6  CG        12.8930   -6.2830  -11.6700 C.ar   11  TYR11      -0.0200
      7  CD1       11.6170   -6.7910  -11.4340 C.ar   11  TYR11      -0.0009
      8  CD2       13.1650   -4.9720  -11.2830 C.ar   11  TYR11      -0.0009
      9  CE1       10.6410   -6.0150  -10.8290 C.ar   11  TYR11       0.0417
     10  CE2       12.1960   -4.1910  -10.6740 C.ar   11  TYR11       0.0417
     11  CZ        10.9390   -4.7170  -10.4520 C.ar   11  TYR11       0.1957
     12  OH         9.9810   -3.9460   -9.8480 O.3    11  TYR11      -0.2866
     13  N         15.6770   -8.4760  -14.7560 N.am   12  LYS12      -0.1980
     14  CA        17.0000   -8.8820  -15.2280 C.3    12  LYS12       0.1596
     15  C         16.8970  -10.0820  -16.1920 C.2    12  LYS12       0.2287
     16  O         15.8640  -10.7540  -16.2240 O.2    12  LYS12      -0.2864
     17  CB        17.9240   -9.2030  -14.0400 C.3    12  LYS12       0.0298
     18  CG        17.5050  -10.4020  -13.1930 C.3    12  LYS12       0.0038
     19  CD        18.7160  -11.1650  -12.6830 C.3    12  LYS12       0.0206
     20  CE        18.3460  -12.5910  -12.2950 C.3    12  LYS12       0.1093
     21  NZ        19.5530  -13.4540  -12.1060 N.3    12  LYS12      -0.1314
     22  N         15.6230  -13.1590  -14.5250 N.3    15  SER15      -0.1217
     23  CA        14.4160  -12.9020  -13.7400 C.3    15  SER15       0.1889
     24  C         13.1960  -13.5120  -14.4380 C.2    15  SER15       0.2288
     25  O         13.1530  -13.5690  -15.6710 O.2    15  SER15      -0.2866
     26  CB        14.2210  -11.3940  -13.5540 C.3    15  SER15       0.2089
     27  OG        12.9990  -11.0820  -12.8990 O.3    15  SER15      -0.2183
     28  N          7.6510  -10.5660  -14.8570 N.3    18  ILE18      -0.1245
     29  CA         6.8500   -9.8960  -13.8330 C.3    18  ILE18       0.1561
     30  C          5.5690   -9.3130  -14.4370 C.2    18  ILE18       0.2260
     31  O          4.4720   -9.6270  -13.9850 O.2    18  ILE18      -0.2867
     32  CB         7.6780   -8.8070  -13.0760 C.3    18  ILE18       0.0252
     33  CG1        8.9880   -9.3850  -12.5020 C.3    18  ILE18       0.0019
     34  CG2        6.8330   -8.1330  -11.9840 C.3    18  ILE18       0.0019
     35  CD1        8.8310  -10.5770  -11.5460 C.3    18  ILE18       0.0001
     36  N         -0.1100   -9.8090   -2.4990 N.3    38  SER38      -0.1202
     37  CA         1.2950   -9.4710   -2.3530 C.3    38  SER38       0.2020
     38  C          2.1070  -10.1880   -3.4360 C.2    38  SER38       0.2619
     39  O          2.0730  -11.4210   -3.5360 O.2    38  SER38      -0.2717
     40  CB         1.7970   -9.8710   -0.9670 C.3    38  SER38       0.2103
     41  OG         3.2100   -9.7710   -0.8900 O.3    38  SER38      -0.2182
     42  N          2.8180   -9.4040   -4.2490 N.am   39  GLY39      -0.1942
     43  CA         3.7050   -9.9490   -5.2900 C.3    39  GLY39       0.2014
     44  C          3.0950  -10.0050   -6.6830 C.2    39  GLY39       0.2640
     45  O          3.7270  -10.4850   -7.6220 O.2    39  GLY39      -0.2714
     46  N          1.8720   -9.5020   -6.8230 N.am   40  SER40      -0.1935
     47  CA         1.1450   -9.5800   -8.0840 C.3    40  SER40       0.2055
     48  C          1.6710   -8.6230   -9.1670 C.2    40  SER40       0.2644
     49  O          1.3250   -8.7660  -10.3460 O.2    40  SER40      -0.2714
     50  CB        -0.3420   -9.3470   -7.8380 C.3    40  SER40       0.2130
     51  OG        -0.5250   -8.2840   -6.9250 O.3    40  SER40      -0.2179
     52  N          2.4910   -7.6520   -8.7610 N.am   41  GLY41      -0.1939
     53  CA         3.1480   -6.7310   -9.6860 C.3    41  GLY41       0.2014
     54  C          2.5860   -5.3170   -9.6910 C.2    41  GLY41       0.2639
     55  O          2.6760   -4.6140  -10.7060 O.2    41  GLY41      -0.2714
     56  N          2.0120   -4.8930   -8.5660 N.am   42  LYS42      -0.1963
     57  CA         1.3670   -3.5810   -8.4890 C.3    42  LYS42       0.1728
     58  C          2.3790   -2.4330   -8.5630 C.2    42  LYS42       0.2617
     59  O          2.2370   -1.5300   -9.3950 O.2    42  LYS42      -0.2715
     60  CB         0.5000   -3.4620   -7.2300 C.3    42  LYS42       0.0311
     61  CG        -0.5600   -4.5560   -7.0820 C.3    42  LYS42       0.0038
     62  CD        -1.4320   -4.3390   -5.8480 C.3    42  LYS42       0.0206
     63  CE        -0.6540   -4.5400   -4.5580 C.3    42  LYS42       0.1093
     64  NZ        -0.2910   -5.9690   -4.4060 N.3    42  LYS42      -0.1314
     65  N          3.3880   -2.4760   -7.6960 N.am   43  SER43      -0.1936
     66  CA         4.4480   -1.4830   -7.6950 C.3    43  SER43       0.2055
     67  C          5.2040   -1.4670   -9.0230 C.2    43  SER43       0.2643
     68  O          5.4500   -0.4040   -9.5810 O.2    43  SER43      -0.2714
     69  CB         5.4290   -1.7350   -6.5410 C.3    43  SER43       0.2130
     70  OG         4.9040   -1.2990   -5.2980 O.3    43  SER43      -0.2179
     71  N          5.5730   -2.6470   -9.5170 N.am   44  THR44      -0.1950
     72  CA         6.3560   -2.7700  -10.7460 C.3    44  THR44       0.1897
     73  C          5.6970   -2.0110  -11.9000 C.2    44  THR44       0.2313
     74  O          6.3650   -1.2810  -12.6340 O.2    44  THR44      -0.2863
     75  CB         6.5680   -4.2620  -11.1070 C.3    44  THR44       0.1794
     76  OG1        7.2790   -4.9210  -10.0490 O.3    44  THR44      -0.2208
     77  CG2        7.5070   -4.3990  -12.2850 C.3    44  THR44       0.0378
     78  N          6.4630    1.4600  -11.3620 N.3    47  LYS47      -0.1245
     79  CA         7.8750    1.7980  -11.6150 C.3    47  LYS47       0.1561
     80  C          8.1550    2.0770  -13.0860 C.2    47  LYS47       0.2260
     81  O          9.1050    2.7790  -13.4140 O.2    47  LYS47      -0.2867
     82  CB         8.8200    0.7040  -11.1190 C.3    47  LYS47       0.0271
     83  CG         9.0550    0.7110   -9.6250 C.3    47  LYS47       0.0035
     84  CD         9.9160   -0.4670   -9.2210 C.3    47  LYS47       0.0206
     85  CE         9.5130   -1.0000   -7.8570 C.3    47  LYS47       0.1093
     86  NZ        10.0240   -2.3930   -7.6460 N.3    47  LYS47      -0.1314
     87  N         12.8580    1.5460  -15.2000 N.3    53  TYR53      -0.1241
     88  CA        13.1500    0.4010  -16.0580 C.3    53  TYR53       0.1605
     89  C         12.5720    0.5160  -17.4710 C.2    53  TYR53       0.2264
     90  O         11.5030    1.1020  -17.6830 O.2    53  TYR53      -0.2867
     91  CB        12.6620   -0.8930  -15.4020 C.3    53  TYR53       0.0534
     92  CG        13.4700   -1.3170  -14.1950 C.ar   53  TYR53      -0.0201
     93  CD1       13.0880   -0.9320  -12.9070 C.ar   53  TYR53      -0.0009
     94  CD2       14.6200   -2.1020  -14.3370 C.ar   53  TYR53      -0.0009
     95  CE1       13.8310   -1.3110  -11.7880 C.ar   53  TYR53       0.0417
     96  CE2       15.3710   -2.4890  -13.2220 C.ar   53  TYR53       0.0417
     97  CZ        14.9660   -2.0880  -11.9520 C.ar   53  TYR53       0.1957
     98  OH        15.6890   -2.4610  -10.8400 O.3    53  TYR53      -0.2866
     99  N          1.7940    4.7580   -2.9970 N.3   164  ASP164     -0.1225
    100  CA         2.1490    3.3640   -2.8470 C.3   164  ASP164      0.1805
    101  C          2.0110    2.9120   -1.3940 C.2   164  ASP164      0.2597
    102  O          2.9560    3.0100   -0.6080 O.2   164  ASP164     -0.2718
    103  CB         3.5470    3.0930   -3.3870 C.3   164  ASP164      0.1424
    104  CG         3.8080    1.6260   -3.5800 C.2   164  ASP164      0.3668
    105  OD1        3.0570    0.8060   -2.9970 O.co2 164  ASP164     -0.2456
    106  OD2        4.7420    1.2000   -4.2930 O.co2 164  ASP164     -0.2456
    107  N          0.8180    2.4060   -1.0710 N.am  165  GLU165     -0.1979
    108  CA         0.4400    1.9970    0.2810 C.3   165  GLU165      0.1602
    109  C          0.6090    3.1390    1.2790 C.2   165  GLU165      0.2287
    110  O          0.9000    2.9100    2.4560 O.2   165  GLU165     -0.2864
    111  CB         1.2380    0.7680    0.7420 C.3   165  GLU165      0.0415
    112  CG         1.1240   -0.4680   -0.1360 C.3   165  GLU165      0.1163
    113  CD        -0.2230   -1.1770   -0.0600 C.2   165  GLU165      0.3649
    114  OE1       -1.1450   -0.7170    0.6510 O.co2 165  GLU165     -0.2457
    115  OE2       -0.3580   -2.2250   -0.7330 O.co2 165  GLU165     -0.2457
    116  N         -2.0990    2.3690   -4.9630 N.3   194  ILE194     -0.1245
    117  CA        -1.8540    0.9600   -4.7170 C.3   194  ILE194      0.1561
    118  C         -2.2460    0.6950   -3.2750 C.2   194  ILE194      0.2260
    119  O         -1.6350    1.2560   -2.3590 O.2   194  ILE194     -0.2867
    120  CB        -0.3700    0.6220   -4.9610 C.3   194  ILE194      0.0252
    121  CG1       -0.0020    0.8320   -6.4380 C.3   194  ILE194      0.0019
    122  CG2       -0.0440   -0.8000   -4.5010 C.3   194  ILE194      0.0019
    123  CD1        1.5070    0.9860   -6.6890 C.3   194  ILE194      0.0001
@<TRIPOS>BOND
     1    90    89    2
     2    89    88    1
     3    16    15    2
     4    15    14    1
     5    88    91    1
     6    88    87    1
     7    25    24    2
     8    91    92    1
     9    14    13    1
    10    14    17    1
    11    28    29    1
    12    13     3   am
    13    22    23    1
    14    24    23    1
    15    30    31    2
    16    30    29    1
    17     1     2    1
    18     4     3    2
    19     3     2    1
    20    94    92   ar
    21    94    96   ar
    22    92    93   ar
    23    17    18    1
    24     2     5    1
    25    29    32    1
    26    23    26    1
    27    26    27    1
    28    81    80    2
    29    96    97   ar
    30    18    19    1
    31    80    79    1
    32    32    33    1
    33    32    34    1
    34    93    95   ar
    35    19    20    1
    36    74    73    2
    37    33    35    1
    38     5     6    1
    39    20    21    1
    40    77    75    1
    41    97    95   ar
    42    97    98    1
    43    73    72    1
    44     6     7   ar
    45     6     8   ar
    46    79    78    1
    47    79    82    1
    48     7     9   ar
    49     8    10   ar
    50    82    83    1
    51    75    72    1
    52    75    76    1
    53     9    11   ar
    54    72    71    1
    55    55    54    2
    56    10    11   ar
    57    11    12    1
    58    49    48    2
    59    54    53    1
    60    54    56   am
    61    53    52    1
    62    83    84    1
    63    68    67    2
    64    71    67   am
    65    59    58    2
    66    84    85    1
    67    48    52   am
    68    48    47    1
    69    67    66    1
    70    56    57    1
    71    58    57    1
    72    58    65   am
    73    57    60    1
    74    47    50    1
    75    47    46    1
    76    85    86    1
    77    50    51    1
    78    65    66    1
    79    66    69    1
    80    45    44    2
    81    60    61    1
    82    61    62    1
    83    46    44   am
    84   123   121    1
    85    44    43    1
    86    69    70    1
    87   121   120    1
    88    62    63    1
    89    43    42    1
    90   116   117    1
    91   120   117    1
    92   120   122    1
    93   117   118    1
    94    63    64    1
    95   106   104   ar
    96    42    38   am
    97   104   103    1
    98   104   105   ar
    99    39    38    2
   100    38    37    1
   101   103   100    1
   102   118   119    2
   103    99   100    1
   104   100   101    1
   105    36    37    1
   106    37    40    1
   107   101   107   am
   108   101   102    2
   109   107   108    1
   110    40    41    1
   111   115   113   ar
   112   112   113    1
   113   112   111    1
   114   113   114   ar
   115   108   111    1
   116   108   109    1
   117   109   110    2
