@<TRIPOS>MOLECULE
tmp/2fglA00.pdb
 176 172 0 0 0
SMALL
GASTEIGER

@<TRIPOS>ATOM
      1  N         -6.5550   -7.5670   -1.7350 N.3    26  GLU26      -0.1245
      2  CA        -6.0570   -8.8650   -1.2970 C.3    26  GLU26       0.1567
      3  C         -5.4970   -9.4860   -2.5740 C.2    26  GLU26       0.2260
      4  O         -6.0040   -9.2240   -3.6670 O.2    26  GLU26      -0.2867
      5  CB        -7.1940   -9.7290   -0.7490 C.3    26  GLU26       0.0388
      6  CG        -7.7100   -9.3070    0.6210 C.3    26  GLU26       0.1160
      7  CD        -6.8040   -9.7550    1.7540 C.2    26  GLU26       0.3649
      8  OE1       -5.5640   -9.6280    1.6220 O.co2  26  GLU26      -0.2457
      9  OE2       -7.3370  -10.2290    2.7810 O.co2  26  GLU26      -0.2457
     10  N         -5.8570  -12.2250   -4.1000 N.3    28  HIS28      -0.1241
     11  CA        -6.7990  -12.9360   -4.9590 C.3    28  HIS28       0.1621
     12  C         -7.7990  -12.0440   -5.6950 C.2    28  HIS28       0.2264
     13  O         -8.6390  -12.5430   -6.4410 O.2    28  HIS28      -0.2867
     14  CB        -7.5640  -13.9720   -4.1370 C.3    28  HIS28       0.0745
     15  CG        -8.5610  -13.3760   -3.1930 C.ar   28  HIS28       0.0817
     16  ND1       -9.7890  -12.9040   -3.6070 N.ar   28  HIS28      -0.2268
     17  CD2       -8.5150  -13.1800   -1.8550 C.ar   28  HIS28       0.1154
     18  CE1      -10.4580  -12.4470   -2.5640 C.ar   28  HIS28       0.1986
     19  NE2       -9.7070  -12.6020   -1.4880 N.ar   28  HIS28      -0.2212
     20  N         -4.4240   -4.7920    1.9530 N.3    48  GLU48      -0.1231
     21  CA        -5.3450   -4.8420    3.0760 C.3    48  GLU48       0.1699
     22  C         -4.7550   -5.6570    4.2270 C.2    48  GLU48       0.2592
     23  O         -4.9850   -5.3430    5.3920 O.2    48  GLU48      -0.2718
     24  CB        -6.6850   -5.4500    2.6470 C.3    48  GLU48       0.0402
     25  CG        -7.7160   -5.4830    3.7580 C.3    48  GLU48       0.1161
     26  CD        -9.0130   -6.1540    3.3520 C.2    48  GLU48       0.3649
     27  OE1       -9.0280   -6.8770    2.3400 O.co2  48  GLU48      -0.2457
     28  OE2      -10.0190   -5.9740    4.0580 O.co2  48  GLU48      -0.2457
     29  N         -3.9780   -6.6900    3.9000 N.am   49  ASN49      -0.1974
     30  CA        -3.3780   -7.5480    4.9240 C.3    49  ASN49       0.1688
     31  C         -1.9870   -8.0920    4.6100 C.2    49  ASN49       0.2292
     32  O         -1.1460   -8.1970    5.4900 O.2    49  ASN49      -0.2864
     33  CB        -4.2990   -8.7380    5.2130 C.3    49  ASN49       0.1181
     34  CG        -5.5690   -8.3280    5.8890 C.2    49  ASN49       0.2629
     35  OD1       -5.5370   -7.7280    6.9670 O.2    49  ASN49      -0.2716
     36  ND2       -6.7060   -8.6390    5.2690 N.am   49  ASN49      -0.0877
     37  N          1.2430   -6.6070    6.5180 N.3    52  LYS52      -0.1245
     38  CA         1.3190   -6.3270    7.9430 C.3    52  LYS52       0.1561
     39  C          2.4520   -7.1920    8.4900 C.2    52  LYS52       0.2260
     40  O          2.8120   -8.2000    7.8920 O.2    52  LYS52      -0.2867
     41  CB        -0.0170   -6.6440    8.6200 C.3    52  LYS52       0.0271
     42  CG        -1.1130   -5.6630    8.2080 C.3    52  LYS52       0.0035
     43  CD        -2.4760   -6.0730    8.6760 C.3    52  LYS52       0.0206
     44  CE        -3.5010   -5.0510    8.2480 C.3    52  LYS52       0.1093
     45  NZ        -4.8850   -5.5460    8.4090 N.3    52  LYS52      -0.1314
     46  N          1.4250   -0.7610    3.8830 N.3    85  HIS85      -0.1241
     47  CA         0.7190   -0.9130    5.1560 C.3    85  HIS85       0.1621
     48  C          0.9770   -2.3060    5.7500 C.2    85  HIS85       0.2264
     49  O          0.5080   -3.3010    5.1950 O.2    85  HIS85      -0.2867
     50  CB        -0.7860   -0.7330    4.9220 C.3    85  HIS85       0.0745
     51  CG        -1.6060   -0.7670    6.1700 C.ar   85  HIS85       0.0817
     52  ND1       -1.6660    0.2890    7.0530 N.ar   85  HIS85      -0.2268
     53  CD2       -2.4060   -1.7320    6.6830 C.ar   85  HIS85       0.1154
     54  CE1       -2.4700   -0.0230    8.0560 C.ar   85  HIS85       0.1986
     55  NE2       -2.9300   -1.2440    7.8550 N.ar   85  HIS85      -0.2212
     56  N          2.5690   -2.0610   14.1090 N.3    89  TRP89      -0.1241
     57  CA         1.2050   -2.0890   14.6270 C.3    89  TRP89       0.1605
     58  C          1.1060   -3.1020   15.7750 C.2    89  TRP89       0.2264
     59  O          1.9240   -4.0210   15.8660 O.2    89  TRP89      -0.2867
     60  CB         0.2300   -2.4510   13.5120 C.3    89  TRP89       0.0550
     61  CG        -1.1960   -2.1930   13.8530 C.ar   89  TRP89       0.0003
     62  CD1       -1.6750   -1.2060   14.6580 C.ar   89  TRP89       0.0946
     63  CD2       -2.3410   -2.8820   13.3360 C.ar   89  TRP89       0.0152
     64  NE1       -3.0460   -1.2290   14.6740 N.ar   89  TRP89      -0.2442
     65  CE2       -3.4850   -2.2470   13.8700 C.ar   89  TRP89       0.0810
     66  CE3       -2.5140   -3.9700   12.4670 C.ar   89  TRP89       0.0012
     67  CZ2       -4.7940   -2.6630   13.5640 C.ar   89  TRP89       0.0191
     68  CZ3       -3.8180   -4.3870   12.1590 C.ar   89  TRP89       0.0001
     69  CH2       -4.9380   -3.7300   12.7100 C.ar   89  TRP89       0.0015
     70  N         -1.9580   -8.1120   14.3500 N.3    92  GLN92      -0.1245
     71  CA        -1.3760   -8.8510   13.2350 C.3    92  GLN92       0.1566
     72  C          0.1320   -8.6140   13.1990 C.2    92  GLN92       0.2260
     73  O          0.7070   -8.1910   12.1890 O.2    92  GLN92      -0.2867
     74  CB        -2.0390   -8.4180   11.9200 C.3    92  GLN92       0.0367
     75  CG        -3.4570   -8.9770   11.7520 C.3    92  GLN92       0.0905
     76  CD        -4.1980   -8.4290   10.5290 C.2    92  GLN92       0.2608
     77  OE1       -4.7040   -7.3040   10.5420 O.2    92  GLN92      -0.2717
     78  NE2       -4.2660   -9.2300    9.4710 N.am   92  GLN92      -0.0878
     79  N          1.2950    2.4430   12.8320 N.3   148  ASN148     -0.1225
     80  CA        -0.1500    2.4360   12.7520 C.3   148  ASN148      0.1785
     81  C         -0.7690    2.3850   14.1400 C.2   148  ASN148      0.2597
     82  O         -0.4020    1.5550   14.9620 O.2   148  ASN148     -0.2718
     83  CB        -0.6050    1.2270   11.9370 C.3   148  ASN148      0.1169
     84  CG        -2.0670    1.2970   11.5470 C.2   148  ASN148      0.2627
     85  OD1       -2.5490    2.3390   11.1030 O.2   148  ASN148     -0.2716
     86  ND2       -2.7770    0.1800   11.6890 N.am  148  ASN148     -0.0877
     87  N         -1.6880    3.3080   14.3970 N.am  149  GLU149     -0.1979
     88  CA        -2.4210    3.3690   15.6590 C.3   149  GLU149      0.1602
     89  C         -1.6070    3.4140   16.9620 C.2   149  GLU149      0.2287
     90  O         -1.8880    2.6510   17.9000 O.2   149  GLU149     -0.2864
     91  CB        -3.4130    2.1950   15.7090 C.3   149  GLU149      0.0415
     92  CG        -4.3030    2.0690   14.4650 C.3   149  GLU149      0.1163
     93  CD        -5.3650    0.9780   14.5970 C.2   149  GLU149      0.3649
     94  OE1       -5.2850    0.1420   15.5230 O.co2 149  GLU149     -0.2457
     95  OE2       -6.2850    0.9440   13.7580 O.co2 149  GLU149     -0.2457
     96  N         -7.1620    7.2990    8.6090 N.3   228  GLN228     -0.1245
     97  CA        -7.8550    6.1000    8.1270 C.3   228  GLN228      0.1566
     98  C         -9.2530    6.4280    7.6170 C.2   228  GLN228      0.2260
     99  O         -9.7350    5.8320    6.6600 O.2   228  GLN228     -0.2867
    100  CB        -7.9500    5.0520    9.2360 C.3   228  GLN228      0.0367
    101  CG        -6.6460    4.3610    9.5540 C.3   228  GLN228      0.0905
    102  CD        -6.7640    3.5010   10.7840 C.2   228  GLN228      0.2608
    103  OE1       -7.8650    3.1450   11.1960 O.2   228  GLN228     -0.2717
    104  NE2       -5.6310    3.1540   11.3790 N.am  228  GLN228     -0.0878
    105  N        -12.3400    5.8880    8.9350 N.3   230  HIS230     -0.1241
    106  CA       -13.3780    4.8700    9.0520 C.3   230  HIS230      0.1621
    107  C        -14.4680    5.6800    9.7180 C.2   230  HIS230      0.2264
    108  O        -14.6330    5.6810   10.9440 O.2   230  HIS230     -0.2867
    109  CB       -12.9180    3.7350    9.9490 C.3   230  HIS230      0.0745
    110  CG       -11.8660    2.8830    9.3190 C.ar  230  HIS230      0.0817
    111  ND1      -12.1040    2.1360    8.1840 N.ar  230  HIS230     -0.2268
    112  CD2      -10.5680    2.6810    9.6410 C.ar  230  HIS230      0.1154
    113  CE1      -10.9950    1.5090    7.8350 C.ar  230  HIS230      0.1986
    114  NE2      -10.0480    1.8240    8.7020 N.ar  230  HIS230     -0.2212
    115  N         -7.8130    4.6890    4.6030 N.3   259  GLU259     -0.1245
    116  CA        -8.7080    3.5400    4.7150 C.3   259  GLU259      0.1567
    117  C        -10.1560    3.9670    4.7380 C.2   259  GLU259      0.2260
    118  O        -10.9460    3.4960    5.5460 O.2   259  GLU259     -0.2867
    119  CB        -8.3770    2.7660    5.9890 C.3   259  GLU259      0.0388
    120  CG        -6.9170    2.3790    6.0720 C.3   259  GLU259      0.1160
    121  CD        -6.5430    1.7880    7.4070 C.2   259  GLU259      0.3649
    122  OE1       -7.4510    1.3790    8.1590 O.co2 259  GLU259     -0.2457
    123  OE2       -5.3350    1.7280    7.7030 O.co2 259  GLU259     -0.2457
    124  N        -10.8890    1.6450    1.8010 N.3   311  TRP311     -0.1241
    125  CA       -10.4400    0.3790    2.3740 C.3   311  TRP311      0.1605
    126  C        -11.1960   -0.7800    1.7200 C.2   311  TRP311      0.2264
    127  O        -11.8460   -1.5840    2.3960 O.2   311  TRP311     -0.2867
    128  CB       -10.6590    0.3660    3.8870 C.3   311  TRP311      0.0550
    129  CG        -9.8010   -0.6500    4.5850 C.ar  311  TRP311      0.0003
    130  CD1      -10.2240   -1.7010    5.3450 C.ar  311  TRP311      0.0946
    131  CD2       -8.3670   -0.7110    4.5810 C.ar  311  TRP311      0.0152
    132  NE1       -9.1420   -2.4140    5.8140 N.ar  311  TRP311     -0.2442
    133  CE2       -7.9920   -1.8240    5.3620 C.ar  311  TRP311      0.0810
    134  CE3       -7.3630    0.0700    3.9920 C.ar  311  TRP311      0.0012
    135  CZ2       -6.6580   -2.1740    5.5730 C.ar  311  TRP311      0.0191
    136  CZ3       -6.0300   -0.2840    4.2030 C.ar  311  TRP311      0.0001
    137  CH2       -5.6950   -1.3940    4.9870 C.ar  311  TRP311      0.0015
    138  N        -16.9130   -6.9400   -0.5810 N.3   317  HIS317     -0.1226
    139  CA       -15.7780   -7.2370    0.2970 C.3   317  HIS317      0.1752
    140  C        -15.4060   -6.0350    1.1680 C.2   317  HIS317      0.2597
    141  O        -14.7780   -5.0850    0.6940 O.2   317  HIS317     -0.2718
    142  CB       -14.5710   -7.6510   -0.5590 C.3   317  HIS317      0.0759
    143  CG       -13.3230   -7.9290    0.2270 C.ar  317  HIS317      0.0818
    144  ND1      -13.0000   -9.1850    0.6970 N.ar  317  HIS317     -0.2268
    145  CD2      -12.3100   -7.1140    0.6100 C.ar  317  HIS317      0.1154
    146  CE1      -11.8420   -9.1310    1.3320 C.ar  317  HIS317      0.1986
    147  NE2      -11.4030   -7.8860    1.2950 N.ar  317  HIS317     -0.2212
    148  N        -15.7880   -6.0860    2.4400 N.am  318  THR318     -0.1939
    149  CA       -15.5040   -5.0030    3.3840 C.3   318  THR318      0.2028
    150  C        -15.4210   -5.5080    4.8210 C.2   318  THR318      0.2642
    151  O        -16.3020   -6.2300    5.2860 O.2   318  THR318     -0.2714
    152  CB       -16.5900   -3.9200    3.3360 C.3   318  THR318      0.1808
    153  OG1      -16.3140   -2.9280    4.3280 O.3   318  THR318     -0.2208
    154  CG2      -17.9520   -4.5210    3.6070 C.3   318  THR318      0.0379
    155  N        -14.3670   -5.1120    5.5280 N.am  319  TRP319     -0.1973
    156  CA       -14.1820   -5.5380    6.9150 C.3   319  TRP319      0.1640
    157  C        -15.2960   -5.0040    7.8070 C.2   319  TRP319      0.2290
    158  O        -15.4340   -5.4150    8.9550 O.2   319  TRP319     -0.2864
    159  CB       -12.8310   -5.0500    7.4590 C.3   319  TRP319      0.0576
    160  CG       -12.8240   -3.5980    7.8510 C.ar  319  TRP319      0.0006
    161  CD1      -13.1630   -2.5260    7.0650 C.ar  319  TRP319      0.0946
    162  CD2      -12.4540   -3.0600    9.1240 C.ar  319  TRP319      0.0152
    163  NE1      -13.0240   -1.3550    7.7750 N.ar  319  TRP319     -0.2442
    164  CE2      -12.5910   -1.6530    9.0400 C.ar  319  TRP319      0.0810
    165  CE3      -12.0220   -3.6290   10.3300 C.ar  319  TRP319      0.0012
    166  CZ2      -12.3110   -0.8080   10.1150 C.ar  319  TRP319      0.0191
    167  CZ3      -11.7410   -2.7870   11.4050 C.ar  319  TRP319      0.0001
    168  CH2      -11.8870   -1.3910   11.2890 C.ar  319  TRP319      0.0015
    169  N        -17.6140   -7.6780    9.1680 N.3   322  ASP322     -0.1239
    170  CA       -17.2070   -8.4050   10.3630 C.3   322  ASP322      0.1674
    171  C        -17.6690   -7.6160   11.5770 C.2   322  ASP322      0.2266
    172  O        -18.1990   -8.1780   12.5290 O.2   322  ASP322     -0.2867
    173  CB       -15.6830   -8.5690   10.4150 C.3   322  ASP322      0.1410
    174  CG       -15.1310   -9.3440    9.2270 C.2   322  ASP322      0.3668
    175  OD1      -15.6750  -10.4300    8.9150 O.co2 322  ASP322     -0.2456
    176  OD2      -14.1440   -8.8700    8.6160 O.co2 322  ASP322     -0.2456
@<TRIPOS>BOND
     1    13    12    2
     2    12    11    1
     3    11    14    1
     4    11    10    1
     5    14    15    1
     6     4     3    2
     7    16    15   ar
     8    16    18   ar
     9    15    17   ar
    10     3     2    1
    11    18    19   ar
    12    17    19   ar
    13     1     2    1
    14     2     5    1
    15     5     6    1
    16   138   139    1
    17   142   143    1
    18   142   139    1
    19   143   145   ar
    20   143   144   ar
    21   139   140    1
    22   145   147   ar
    23     6     7    1
    24   141   140    2
    25   144   146   ar
    26   140   148   am
    27   147   146   ar
    28     8     7   ar
    29   126   125    1
    30   126   127    2
    31     7     9   ar
    32   124   125    1
    33    20    21    1
    34    27    26   ar
    35   125   128    1
    36   148   149    1
    37    24    21    1
    38    24    25    1
    39    21    22    1
    40   152   149    1
    41   152   154    1
    42   152   153    1
    43    26    25    1
    44    26    28   ar
    45   149   150    1
    46    46    47    1
    47   128   129    1
    48    29    22   am
    49    29    30    1
    50   134   136   ar
    51   134   131   ar
    52   136   137   ar
    53    22    23    2
    54   131   129   ar
    55   131   133   ar
    56   129   130   ar
    57   115   116    1
    58    31    30    1
    59    31    32    2
    60   116   117    1
    61   116   119    1
    62   117   118    2
    63   150   151    2
    64   150   155   am
    65    50    47    1
    66    50    51    1
    67    30    33    1
    68   137   135   ar
    69    47    48    1
    70    49    48    2
    71    33    34    1
    72    36    34   am
    73   130   132   ar
    74   133   135   ar
    75   133   132   ar
    76   155   156    1
    77    34    35    2
    78   119   120    1
    79   120   121    1
    80    51    53   ar
    81    51    52   ar
    82    37    38    1
    83    99    98    2
    84    53    55   ar
    85   156   159    1
    86   156   157    1
    87    52    54   ar
    88   161   163   ar
    89   161   160   ar
    90   121   123   ar
    91   121   122   ar
    92   159   160    1
    93    98    97    1
    94   163   164   ar
    95   157   158    2
    96   113   111   ar
    97   113   114   ar
    98   160   162   ar
    99    55    54   ar
   100    40    39    2
   101    38    39    1
   102    38    41    1
   103    97    96    1
   104    97   100    1
   105   111   110   ar
   106    42    41    1
   107    42    43    1
   108    44    45    1
   109    44    43    1
   110   176   174   ar
   111   114   112   ar
   112   175   174   ar
   113   105   106    1
   114   164   162   ar
   115   164   166   ar
   116   106   107    1
   117   106   109    1
   118   162   165   ar
   119   169   170    1
   120   174   173    1
   121   100   101    1
   122   110   112   ar
   123   110   109    1
   124    78    76   am
   125   101   102    1
   126   107   108    2
   127   166   168   ar
   128   165   167   ar
   129   170   173    1
   130   170   171    1
   131    76    77    2
   132    76    75    1
   133   102   103    2
   134   102   104   am
   135    85    84    2
   136   168   167   ar
   137    84    86   am
   138    84    83    1
   139   171   172    2
   140    75    74    1
   141    74    71    1
   142    83    80    1
   143    68    66   ar
   144    68    69   ar
   145    73    72    2
   146    66    63   ar
   147    69    67   ar
   148    80    79    1
   149    80    81    1
   150    72    71    1
   151    71    70    1
   152    63    61   ar
   153    63    65   ar
   154    60    61    1
   155    60    57    1
   156    67    65   ar
   157    95    93   ar
   158    61    62   ar
   159    65    64   ar
   160    56    57    1
   161    81    87   am
   162    81    82    2
   163    87    88    1
   164    92    93    1
   165    92    91    1
   166    93    94   ar
   167    57    58    1
   168    62    64   ar
   169    88    91    1
   170    88    89    1
   171    58    59    2
   172    89    90    2
