@<TRIPOS>MOLECULE
tmp/2fglA01.pdb
 107 106 0 0 0
SMALL
GASTEIGER

@<TRIPOS>ATOM
      1  N         -7.1450    6.0830   22.3430 N.3   153  ASP153     -0.1239
      2  CA        -8.4650    6.6580   22.1430 C.3   153  ASP153      0.1674
      3  C         -8.8590    7.4980   23.3620 C.2   153  ASP153      0.2266
      4  O         -9.7400    8.3580   23.2800 O.2   153  ASP153     -0.2867
      5  CB        -9.5090    5.5590   21.9010 C.3   153  ASP153      0.1410
      6  CG        -9.3980    4.9400   20.5130 C.2   153  ASP153      0.3668
      7  OD1       -9.3210    5.7020   19.5250 O.co2 153  ASP153     -0.2456
      8  OD2       -9.4040    3.6950   20.4030 O.co2 153  ASP153     -0.2456
      9  N         -6.8600    6.1730   13.2650 N.3   197  TYR197     -0.1227
     10  CA        -8.2760    6.4600   13.0470 C.3   197  TYR197      0.1736
     11  C         -8.7390    7.4890   14.0700 C.2   197  TYR197      0.2595
     12  O         -8.0810    7.7010   15.0800 O.2   197  TYR197     -0.2718
     13  CB        -9.1390    5.2040   13.1920 C.3   197  TYR197      0.0548
     14  CG        -9.0150    4.5290   14.5280 C.ar  197  TYR197     -0.0200
     15  CD1       -7.9320    3.6900   14.8040 C.ar  197  TYR197     -0.0009
     16  CD2       -9.9720    4.7320   15.5310 C.ar  197  TYR197     -0.0009
     17  CE1       -7.8050    3.0600   16.0510 C.ar  197  TYR197      0.0417
     18  CE2       -9.8510    4.1130   16.7850 C.ar  197  TYR197      0.0417
     19  CZ        -8.7630    3.2770   17.0340 C.ar  197  TYR197      0.1957
     20  OH        -8.6130    2.6610   18.2650 O.3   197  TYR197     -0.2866
     21  N         -9.8740    8.1220   13.7920 N.am  198  ASN198     -0.1974
     22  CA       -10.4420    9.1370   14.6740 C.3   198  ASN198      0.1688
     23  C         -9.4600   10.2910   14.8720 C.2   198  ASN198      0.2292
     24  O         -9.3420   10.8540   15.9610 O.2   198  ASN198     -0.2864
     25  CB       -10.8250    8.5200   16.0290 C.3   198  ASN198      0.1181
     26  CG       -12.0310    7.6080   15.9380 C.2   198  ASN198      0.2629
     27  OD1      -12.5920    7.4030   14.8650 O.2   198  ASN198     -0.2716
     28  ND2      -12.4420    7.0600   17.0690 N.am  198  ASN198     -0.0877
     29  N        -11.2530   13.8000   15.8100 N.3   201  VAL201     -0.1245
     30  CA       -11.8640   14.1300   17.0880 C.3   201  VAL201      0.1561
     31  C        -10.9200   14.2240   18.2810 C.2   201  VAL201      0.2260
     32  O         -9.9680   13.4470   18.4180 O.2   201  VAL201     -0.2867
     33  CB       -12.9920   13.1170   17.4220 C.3   201  VAL201      0.0252
     34  CG1      -13.9560   13.0260   16.2440 C.3   201  VAL201      0.0019
     35  CG2      -12.4050   11.7380   17.7330 C.3   201  VAL201      0.0019
     36  N        -12.3400    5.8880    8.9350 N.3   230  HIS230     -0.1241
     37  CA       -13.3780    4.8700    9.0520 C.3   230  HIS230      0.1621
     38  C        -14.4680    5.6800    9.7180 C.2   230  HIS230      0.2264
     39  O        -14.6330    5.6810   10.9440 O.2   230  HIS230     -0.2867
     40  CB       -12.9180    3.7350    9.9490 C.3   230  HIS230      0.0745
     41  CG       -11.8660    2.8830    9.3190 C.ar  230  HIS230      0.0817
     42  ND1      -12.1040    2.1360    8.1840 N.ar  230  HIS230     -0.2268
     43  CD2      -10.5680    2.6810    9.6410 C.ar  230  HIS230      0.1154
     44  CE1      -10.9950    1.5090    7.8350 C.ar  230  HIS230      0.1986
     45  NE2      -10.0480    1.8240    8.7020 N.ar  230  HIS230     -0.2212
     46  N        -18.5960    7.6190    9.5040 N.3   232  GLN232     -0.1245
     47  CA       -20.0000    7.3080    9.3400 C.3   232  GLN232      0.1566
     48  C        -20.6470    8.3750    8.4630 C.2   232  GLN232      0.2260
     49  O        -19.9630    9.2630    7.9360 O.2   232  GLN232     -0.2867
     50  CB       -20.6630    7.2490   10.7150 C.3   232  GLN232      0.0367
     51  CG       -20.0900    6.1490   11.6130 C.3   232  GLN232      0.0905
     52  CD       -20.2420    6.4450   13.0990 C.2   232  GLN232      0.2608
     53  OE1      -21.3360    6.7160   13.5870 O.2   232  GLN232     -0.2717
     54  NE2      -19.1350    6.3880   13.8250 N.am  232  GLN232     -0.0878
     55  N        -20.9380   11.4870   11.0610 N.3   235  TRP235     -0.1241
     56  CA       -19.8180   11.6570   11.9870 C.3   235  TRP235      0.1605
     57  C        -18.5480   11.0690   11.3790 C.2   235  TRP235      0.2264
     58  O        -18.5770    9.9990   10.7770 O.2   235  TRP235     -0.2867
     59  CB       -20.1410   10.9370   13.3000 C.3   235  TRP235      0.0550
     60  CG       -19.0700   10.9930   14.3430 C.ar  235  TRP235      0.0003
     61  CD1      -19.0260   11.8280   15.4270 C.ar  235  TRP235      0.0946
     62  CD2      -17.9070   10.1550   14.4350 C.ar  235  TRP235      0.0152
     63  NE1      -17.9140   11.5550   16.1900 N.ar  235  TRP235     -0.2442
     64  CE2      -17.2090   10.5350   15.6060 C.ar  235  TRP235      0.0810
     65  CE3      -17.3870    9.1210   13.6450 C.ar  235  TRP235      0.0012
     66  CZ2      -16.0180    9.9150   16.0070 C.ar  235  TRP235      0.0191
     67  CZ3      -16.2060    8.5060   14.0410 C.ar  235  TRP235      0.0001
     68  CH2      -15.5340    8.9060   15.2140 C.ar  235  TRP235      0.0015
     69  N        -21.9300    3.7290   15.7670 N.3   267  TRP267     -0.1241
     70  CA       -21.0190    2.8470   16.4910 C.3   267  TRP267      0.1605
     71  C        -21.4080    2.6330   17.9490 C.2   267  TRP267      0.2264
     72  O        -21.5880    3.5860   18.7000 O.2   267  TRP267     -0.2867
     73  CB       -19.5760    3.3590   16.4310 C.3   267  TRP267      0.0550
     74  CG       -18.6580    2.4510   17.1770 C.ar  267  TRP267      0.0003
     75  CD1      -18.3230    2.5290   18.4990 C.ar  267  TRP267      0.0946
     76  CD2      -18.1020    1.2240   16.6960 C.ar  267  TRP267      0.0152
     77  NE1      -17.6060    1.4240   18.8700 N.ar  267  TRP267     -0.2442
     78  CE2      -17.4580    0.6040   17.7820 C.ar  267  TRP267      0.0810
     79  CE3      -18.0930    0.5840   15.4500 C.ar  267  TRP267      0.0012
     80  CZ2      -16.8110   -0.6320   17.6640 C.ar  267  TRP267      0.0191
     81  CZ3      -17.4490   -0.6460   15.3330 C.ar  267  TRP267      0.0001
     82  CH2      -16.8190   -1.2390   16.4350 C.ar  267  TRP267      0.0015
     83  N        -14.3670   -5.1120    5.5280 N.3   319  TRP319     -0.1241
     84  CA       -14.1820   -5.5380    6.9150 C.3   319  TRP319      0.1605
     85  C        -15.2960   -5.0040    7.8070 C.2   319  TRP319      0.2264
     86  O        -15.4340   -5.4150    8.9550 O.2   319  TRP319     -0.2867
     87  CB       -12.8310   -5.0500    7.4590 C.3   319  TRP319      0.0550
     88  CG       -12.8240   -3.5980    7.8510 C.ar  319  TRP319      0.0003
     89  CD1      -13.1630   -2.5260    7.0650 C.ar  319  TRP319      0.0946
     90  CD2      -12.4540   -3.0600    9.1240 C.ar  319  TRP319      0.0152
     91  NE1      -13.0240   -1.3550    7.7750 N.ar  319  TRP319     -0.2442
     92  CE2      -12.5910   -1.6530    9.0400 C.ar  319  TRP319      0.0810
     93  CE3      -12.0220   -3.6290   10.3300 C.ar  319  TRP319      0.0012
     94  CZ2      -12.3110   -0.8080   10.1150 C.ar  319  TRP319      0.0191
     95  CZ3      -11.7410   -2.7870   11.4050 C.ar  319  TRP319      0.0001
     96  CH2      -11.8870   -1.3910   11.2890 C.ar  319  TRP319      0.0015
     97  N        -17.4690   -6.3030   11.5380 N.3   323  ARG323     -0.1245
     98  CA       -17.8760   -5.4480   12.6420 C.3   323  ARG323      0.1563
     99  C        -19.3870   -5.5020   12.8140 C.2   323  ARG323      0.2260
    100  O        -19.8880   -5.5660   13.9300 O.2   323  ARG323     -0.2867
    101  CB       -17.4240   -4.0070   12.3970 C.3   323  ARG323      0.0307
    102  CG       -15.9530   -3.7740   12.6830 C.3   323  ARG323      0.0489
    103  CD       -15.3330   -2.7630   11.7400 C.3   323  ARG323      0.2205
    104  NE       -15.7990   -1.3870   11.9150 N.pl3 323  ARG323     -0.0865
    105  CZ       -15.3470   -0.5390   12.8360 C.cat 323  ARG323      0.5346
    106  NH1      -14.4130   -0.9170   13.6980 N.pl3 323  ARG323      0.1354
    107  NH2      -15.7920    0.7130   12.8610 N.pl3 323  ARG323      0.1354
@<TRIPOS>BOND
     1    83    84    1
     2    84    87    1
     3    84    85    1
     4    89    91   ar
     5    89    88   ar
     6    87    88    1
     7    91    92   ar
     8    85    86    2
     9    44    42   ar
    10    44    45   ar
    11    88    90   ar
    12    49    48    2
    13    42    41   ar
    14    48    47    1
    15    45    43   ar
    16    36    37    1
    17    92    90   ar
    18    92    94   ar
    19    37    38    1
    20    37    40    1
    21    90    93   ar
    22    41    43   ar
    23    41    40    1
    24    47    46    1
    25    47    50    1
    26    38    39    2
    27    94    96   ar
    28    93    95   ar
    29    50    51    1
    30    58    57    2
    31    55    56    1
    32    96    95   ar
    33    57    56    1
    34    97    98    1
    35    51    52    1
    36   103   104    1
    37   103   102    1
    38   104   105    2
    39    56    59    1
    40   101    98    1
    41   101   102    1
    42    98    99    1
    43    99   100    2
    44   105   107    1
    45   105   106    1
    46    10    13    1
    47    10     9    1
    48    10    11    1
    49    52    53    2
    50    52    54   am
    51    13    14    1
    52    59    60    1
    53    65    67   ar
    54    65    62   ar
    55    21    11   am
    56    21    22    1
    57    67    68   ar
    58    11    12    2
    59    60    62   ar
    60    60    61   ar
    61    62    64   ar
    62    14    15   ar
    63    14    16   ar
    64    22    23    1
    65    22    25    1
    66    15    17   ar
    67    27    26    2
    68    23    24    2
    69    68    66   ar
    70    81    79   ar
    71    81    82   ar
    72    61    63   ar
    73    79    76   ar
    74    16    18   ar
    75    64    66   ar
    76    64    63   ar
    77    69    70    1
    78    29    30    1
    79    26    25    1
    80    26    28   am
    81    17    19   ar
    82    34    33    1
    83    73    70    1
    84    73    74    1
    85    82    80   ar
    86    70    71    1
    87    76    74   ar
    88    76    78   ar
    89    18    19   ar
    90    19    20    1
    91    30    33    1
    92    30    31    1
    93    74    75   ar
    94    33    35    1
    95    80    78   ar
    96    78    77   ar
    97    71    72    2
    98    31    32    2
    99    75    77   ar
   100     7     6   ar
   101     8     6   ar
   102     6     5    1
   103     5     2    1
   104     2     1    1
   105     2     3    1
   106     4     3    2
