@<TRIPOS>MOLECULE
tmp/2fgqA01.pdb
 80 72 0 0 0
SMALL
GASTEIGER

@<TRIPOS>ATOM
      1  N         46.8800   47.9780   -6.2840 N.3    34  THR34      -0.1218
      2  CA        47.4090   46.9040   -5.4630 C.3    34  THR34       0.1862
      3  C         48.2590   45.9440   -6.2790 C.2    34  THR34       0.2287
      4  O         47.8400   45.4380   -7.3060 O.2    34  THR34      -0.2866
      5  CB        46.2900   46.1700   -4.7310 C.3    34  THR34       0.1770
      6  OG1       45.5040   47.1150   -3.9760 O.3    34  THR34      -0.2211
      7  CG2       46.8560   45.1350   -3.7570 C.3    34  THR34       0.0375
      8  N         49.9490   42.6170   -7.3950 N.3    36  ARG36      -0.1245
      9  CA        49.3120   41.3060   -7.4600 C.3    36  ARG36       0.1563
     10  C         49.9690   40.3990   -8.4610 C.2    36  ARG36       0.2260
     11  O         50.6910   40.8440   -9.3580 O.2    36  ARG36      -0.2867
     12  CB        47.8200   41.4970   -7.8430 C.3    36  ARG36       0.0307
     13  CG        47.5940   41.8880   -9.2920 C.3    36  ARG36       0.0489
     14  CD        46.2280   42.5340   -9.5670 C.3    36  ARG36       0.2205
     15  NE        46.1500   43.8220   -8.9230 N.pl3  36  ARG36      -0.0865
     16  CZ        45.1170   44.6450   -9.0010 C.cat  36  ARG36       0.5346
     17  NH1       44.0060   44.2780   -9.6420 N.pl3  36  ARG36       0.1354
     18  NH2       45.1840   45.8420   -8.4340 N.pl3  36  ARG36       0.1354
     19  N         43.3110   37.3980   -2.7240 N.3    73  ARG73      -0.1245
     20  CA        42.5820   38.4670   -3.4240 C.3    73  ARG73       0.1563
     21  C         41.3780   37.8600   -4.1420 C.2    73  ARG73       0.2260
     22  O         40.3070   38.4480   -4.1680 O.2    73  ARG73      -0.2867
     23  CB        43.4750   39.2740   -4.3780 C.3    73  ARG73       0.0307
     24  CG        44.4400   40.1600   -3.6000 C.3    73  ARG73       0.0489
     25  CD        45.3690   40.9600   -4.4480 C.3    73  ARG73       0.2205
     26  NE        44.6560   41.7110   -5.4790 N.pl3  73  ARG73      -0.0865
     27  CZ        43.9820   42.8350   -5.2610 C.cat  73  ARG73       0.5346
     28  NH1       44.0010   43.4040   -4.0650 N.pl3  73  ARG73       0.1354
     29  NH2       43.3240   43.4170   -6.2620 N.pl3  73  ARG73       0.1354
     30  N         36.2790   39.5450   -3.5970 N.3    92  LEU92      -0.1245
     31  CA        35.5130   40.7370   -3.2120 C.3    92  LEU92       0.1561
     32  C         34.0290   40.4180   -3.1100 C.2    92  LEU92       0.2260
     33  O         33.4830   39.7170   -3.9620 O.2    92  LEU92      -0.2867
     34  CB        35.6940   41.8650   -4.2340 C.3    92  LEU92       0.0270
     35  CG        37.1040   42.4480   -4.3370 C.3    92  LEU92       0.0019
     36  CD1       37.1530   43.2980   -5.5920 C.3    92  LEU92       0.0001
     37  CD2       37.4030   43.2470   -3.1220 C.3    92  LEU92       0.0001
     38  N         31.4520   45.6500   -2.0020 N.3    96  SER96      -0.1217
     39  CA        32.7310   46.3240   -2.1240 C.3    96  SER96       0.1889
     40  C         33.2050   46.3850   -3.5720 C.2    96  SER96       0.2288
     41  O         33.7210   47.4180   -4.0030 O.2    96  SER96      -0.2866
     42  CB        33.8060   45.6740   -1.2540 C.3    96  SER96       0.2089
     43  OG        34.1230   44.4070   -1.7830 O.3    96  SER96      -0.2183
     44  N         33.5140   50.3490   -4.3660 N.3   100  THR100     -0.1218
     45  CA        34.8680   50.9040   -4.3420 C.3   100  THR100      0.1862
     46  C         35.2460   51.5190   -5.7010 C.2   100  THR100      0.2287
     47  O         36.1820   52.2740   -5.7680 O.2   100  THR100     -0.2866
     48  CB        35.9750   49.8860   -3.9260 C.3   100  THR100      0.1770
     49  OG1       35.9410   48.7250   -4.7510 O.3   100  THR100     -0.2211
     50  CG2       35.7720   49.4200   -2.5260 C.3   100  THR100      0.0375
     51  N         41.1270   54.1810   -5.8090 N.3   106  SER106     -0.1202
     52  CA        41.0190   52.7170   -6.0560 C.3   106  SER106      0.2020
     53  C         41.2910   51.8890   -4.8150 C.2   106  SER106      0.2618
     54  O         41.8660   50.7770   -4.9070 O.2   106  SER106     -0.2717
     55  CB        41.9630   52.2800   -7.1650 C.3   106  SER106      0.2103
     56  OG        41.8980   53.1370   -8.2890 O.3   106  SER106     -0.2182
     57  N         40.8640   52.4050   -3.6730 N.am  107  ALA107     -0.1979
     58  CA        40.8830   51.6910   -2.4240 C.3   107  ALA107      0.1597
     59  C         42.3040   51.2460   -2.0960 C.2   107  ALA107      0.2287
     60  O         42.4850   50.2720   -1.3920 O.2   107  ALA107     -0.2864
     61  CB        39.9180   50.4620   -2.4510 C.3   107  ALA107      0.0319
     62  N         35.3500   43.9810    2.8500 N.3   130  ILE130     -0.1231
     63  CA        35.8830   43.9870    1.4880 C.3   130  ILE130      0.1692
     64  C         35.7760   42.5970    0.7800 C.2   130  ILE130      0.2591
     65  O         35.2180   42.5040   -0.3050 O.2   130  ILE130     -0.2718
     66  CB        37.3090   44.5480    1.4670 C.3   130  ILE130      0.0266
     67  CG1       37.3240   45.9870    1.9550 C.3   130  ILE130      0.0019
     68  CG2       37.8650   44.4290    0.0610 C.3   130  ILE130      0.0020
     69  CD1       38.6930   46.6360    2.0620 C.3   130  ILE130      0.0001
     70  N         36.3100   41.5410    1.3830 N.am  131  ARG131     -0.1980
     71  CA        36.2430   40.2150    0.8240 C.3   131  ARG131      0.1597
     72  C         35.5580   39.2520    1.8000 C.2   131  ARG131      0.2287
     73  O         35.3950   39.5750    2.9740 O.2   131  ARG131     -0.2864
     74  CB        37.6400   39.7140    0.5180 C.3   131  ARG131      0.0334
     75  CG        38.2970   40.4080   -0.6310 C.3   131  ARG131      0.0492
     76  CD        39.7190   39.9180   -0.9430 C.3   131  ARG131      0.2205
     77  NE        40.1920   40.4970   -2.1980 N.pl3 131  ARG131     -0.0865
     78  CZ        40.6470   41.7280   -2.3320 C.cat 131  ARG131      0.5346
     79  NH1       40.7980   42.5110   -1.2700 N.pl3 131  ARG131      0.1354
     80  NH2       40.9530   42.1700   -3.5410 N.pl3 131  ARG131      0.1354
@<TRIPOS>BOND
     1    17    16    1
     2    14    13    1
     3    14    15    1
     4    11    10    2
     5    13    12    1
     6    16    15    2
     7    16    18    1
     8    10     9    1
     9    56    55    1
    10    12     9    1
    11     9     8    1
    12     4     3    2
    13    55    52    1
    14     1     2    1
    15     3     2    1
    16    29    27    1
    17    52    51    1
    18    52    53    1
    19    47    46    2
    20    46    45    1
    21    36    35    1
    22    26    27    2
    23    26    25    1
    24     2     5    1
    25    27    28    1
    26    54    53    2
    27    53    57   am
    28    49    48    1
    29     5     6    1
    30     5     7    1
    31    25    24    1
    32    23    24    1
    33    23    20    1
    34    44    45    1
    35    45    48    1
    36    35    34    1
    37    35    37    1
    38    34    31    1
    39    22    21    2
    40    21    20    1
    41    41    40    2
    42    33    32    2
    43    48    50    1
    44    57    58    1
    45    30    31    1
    46    40    39    1
    47    80    78    1
    48    20    19    1
    49    31    32    1
    50    61    58    1
    51    58    59    1
    52    78    77    2
    53    78    79    1
    54    77    76    1
    55    39    38    1
    56    39    42    1
    57    59    60    2
    58    43    42    1
    59    76    75    1
    60    75    74    1
    61    65    64    2
    62    68    66    1
    63    74    71    1
    64    64    70   am
    65    64    63    1
    66    71    70    1
    67    71    72    1
    68    66    63    1
    69    66    67    1
    70    63    62    1
    71    72    73    2
    72    67    69    1
