@<TRIPOS>MOLECULE
tmp/2fgrA00.pdb
 111 109 0 0 0
SMALL
GASTEIGER

@<TRIPOS>ATOM
      1  N          6.8470   48.8970   25.4980 N.3     2  SER2       -0.1202
      2  CA         6.2070   49.1570   24.1890 C.3     2  SER2        0.2020
      3  C          5.9830   50.6630   24.0430 C.2     2  SER2        0.2619
      4  O          5.6900   51.3370   25.0190 O.2     2  SER2       -0.2717
      5  CB         4.8770   48.4260   24.0660 C.3     2  SER2        0.2103
      6  OG         5.0270   46.9820   24.2060 O.3     2  SER2       -0.2182
      7  N          6.0320   51.1580   22.8060 N.am    3  SER3       -0.1937
      8  CA         5.8120   52.5650   22.5420 C.3     3  SER3        0.2055
      9  C          5.4270   52.7820   21.0810 C.2     3  SER3        0.2643
     10  O          5.6840   51.9180   20.2190 O.2     3  SER3       -0.2714
     11  CB         7.0410   53.3820   22.8820 C.3     3  SER3        0.2130
     12  OG         8.1590   52.9850   22.1000 O.3     3  SER3       -0.2179
     13  N          4.8670   53.9600   20.8340 N.am    4  VAL4       -0.1963
     14  CA         4.6140   54.4470   19.4820 C.3     4  VAL4        0.1727
     15  C          5.0690   55.8910   19.4000 C.2     4  VAL4        0.2617
     16  O          4.8420   56.6960   20.3290 O.2     4  VAL4       -0.2715
     17  CB         3.1430   54.3120   19.0800 C.3     4  VAL4        0.0290
     18  CG1        2.8100   52.8540   18.7360 C.3     4  VAL4        0.0023
     19  CG2        2.2050   54.8680   20.1860 C.3     4  VAL4        0.0023
     20  N          5.7310   56.2100   18.2910 N.am    5  THR5       -0.1937
     21  CA         6.3820   57.4870   18.1010 C.3     5  THR5        0.2028
     22  C          6.0320   58.0990   16.7440 C.2     5  THR5        0.2642
     23  O          6.1220   57.4440   15.7250 O.2     5  THR5       -0.2714
     24  CB         7.8960   57.2860   18.1920 C.3     5  THR5        0.1808
     25  OG1        8.2480   56.7780   19.4940 O.3     5  THR5       -0.2208
     26  CG2        8.6380   58.5970   18.0350 C.3     5  THR5        0.0379
     27  N          5.6190   59.3620   16.7650 N.am    6  LEU6       -0.1963
     28  CA         5.4070   60.1780   15.5790 C.3     6  LEU6        0.1728
     29  C          6.5280   61.2290   15.5630 C.2     6  LEU6        0.2616
     30  O          6.7380   61.9580   16.5320 O.2     6  LEU6       -0.2715
     31  CB         3.9850   60.7760   15.6080 C.3     6  LEU6        0.0311
     32  CG         3.6060   61.7860   14.5390 C.3     6  LEU6        0.0022
     33  CD1        3.5790   61.1790   13.1480 C.3     6  LEU6        0.0001
     34  CD2        2.2290   62.3210   14.9070 C.3     6  LEU6        0.0001
     35  N          7.3020   61.2650   14.4820 N.am    7  PHE7       -0.1974
     36  CA         8.5760   61.9930   14.4560 C.3     7  PHE7        0.1639
     37  C          8.8460   62.5910   13.0930 C.2     7  PHE7        0.2290
     38  O          8.1550   62.3000   12.1260 O.2     7  PHE7       -0.2864
     39  CB         9.7340   61.0690   14.8530 C.3     7  PHE7        0.0560
     40  CG        10.0190   60.0130   13.8160 C.ar    7  PHE7       -0.0200
     41  CD1        9.3320   58.8120   13.8420 C.ar    7  PHE7       -0.0042
     42  CD2       10.9320   60.2310   12.7790 C.ar    7  PHE7       -0.0042
     43  CE1        9.5430   57.8360   12.8740 C.ar    7  PHE7       -0.0003
     44  CE2       11.1500   59.2360   11.8120 C.ar    7  PHE7       -0.0003
     45  CZ        10.4470   58.0610   11.8560 C.ar    7  PHE7       -0.0000
     46  N          6.2280   57.4470   11.4230 N.3    41  LEU41      -0.1231
     47  CA         5.6310   56.7770   12.5530 C.3    41  LEU41       0.1693
     48  C          6.3860   55.4700   12.7680 C.2    41  LEU41       0.2591
     49  O          6.6770   54.7600   11.8170 O.2    41  LEU41      -0.2718
     50  CB         4.1450   56.4640   12.2700 C.3    41  LEU41       0.0284
     51  CG         3.2900   57.6060   11.7890 C.3    41  LEU41       0.0019
     52  CD1        3.2370   57.7020   10.3010 C.3    41  LEU41       0.0001
     53  CD2        1.8890   57.3960   12.3180 C.3    41  LEU41       0.0001
     54  N          6.6750   55.1360   14.0120 N.am   42  ARG42      -0.1980
     55  CA         7.3500   53.8910   14.3100 C.3    42  ARG42       0.1597
     56  C          6.8730   53.4120   15.6640 C.2    42  ARG42       0.2287
     57  O          6.3400   54.1750   16.4780 O.2    42  ARG42      -0.2864
     58  CB         8.8550   54.0420   14.2820 C.3    42  ARG42       0.0334
     59  CG         9.4620   55.0360   15.2940 C.3    42  ARG42       0.0492
     60  CD        10.9620   55.2190   15.1250 C.3    42  ARG42       0.2205
     61  NE        11.4390   56.1170   16.1890 N.pl3  42  ARG42      -0.0865
     62  CZ        12.1120   57.2230   16.0500 C.cat  42  ARG42       0.5346
     63  NH1       12.5200   57.6510   14.8500 N.pl3  42  ARG42       0.1354
     64  NH2       12.4470   57.8940   17.1660 N.pl3  42  ARG42       0.1354
     65  N          7.2870   48.3880   13.6970 N.3    55  PHE55      -0.1241
     66  CA         6.8970   48.9440   12.4030 C.3    55  PHE55       0.1605
     67  C          7.5640   50.3050   12.2630 C.2    55  PHE55       0.2264
     68  O          7.9250   50.9560   13.2480 O.2    55  PHE55      -0.2867
     69  CB         5.3720   49.0570   12.2630 C.3    55  PHE55       0.0534
     70  CG         4.7620   50.1590   13.0780 C.ar   55  PHE55      -0.0203
     71  CD1        4.5600   51.4180   12.5470 C.ar   55  PHE55      -0.0042
     72  CD2        4.4750   49.9780   14.4170 C.ar   55  PHE55      -0.0042
     73  CE1        4.0250   52.4240   13.3180 C.ar   55  PHE55      -0.0003
     74  CE2        3.9710   51.0010   15.1830 C.ar   55  PHE55      -0.0003
     75  CZ         3.7730   52.2250   14.6380 C.ar   55  PHE55      -0.0000
     76  N         19.3730   70.3940   21.0820 N.3   284  LYS284     -0.1231
     77  CA        19.5280   69.0650   20.5570 C.3   284  LYS284      0.1693
     78  C         18.6440   68.8660   19.3240 C.2   284  LYS284      0.2591
     79  O         19.0350   68.1450   18.4110 O.2   284  LYS284     -0.2718
     80  CB        19.2200   68.0020   21.6200 C.3   284  LYS284      0.0285
     81  CG        20.2460   68.0330   22.7570 C.3   284  LYS284      0.0035
     82  CD        20.0770   66.8520   23.7280 C.3   284  LYS284      0.0206
     83  CE        21.0000   67.0230   24.9400 C.3   284  LYS284      0.1093
     84  NZ        21.4740   65.7170   25.5290 N.3   284  LYS284     -0.1314
     85  N         17.5030   69.5410   19.2630 N.am  285  ARG285     -0.1980
     86  CA        16.5950   69.3780   18.1250 C.3   285  ARG285      0.1597
     87  C         16.7970   70.3570   16.9670 C.2   285  ARG285      0.2287
     88  O         16.4230   70.0520   15.8520 O.2   285  ARG285     -0.2864
     89  CB        15.1500   69.4760   18.5880 C.3   285  ARG285      0.0334
     90  CG        14.6560   68.3040   19.4420 C.3   285  ARG285      0.0492
     91  CD        13.3220   68.5920   20.1500 C.3   285  ARG285      0.2205
     92  NE        12.2830   68.8910   19.1720 N.pl3 285  ARG285     -0.0865
     93  CZ        11.1040   69.3870   19.4480 C.cat 285  ARG285      0.5346
     94  NH1       10.7240   69.6040   20.6950 N.pl3 285  ARG285      0.1354
     95  NH2       10.2690   69.6300   18.4660 N.pl3 285  ARG285      0.1354
     96  N         14.3030   68.9600   14.2450 N.3   331  ALA331     -0.1231
     97  CA        13.7940   67.6030   14.4670 C.3   331  ALA331      0.1694
     98  C         12.6830   67.6810   15.4730 C.2   331  ALA331      0.2592
     99  O         12.7260   68.5000   16.3690 O.2   331  ALA331     -0.2718
    100  CB        14.8730   66.7110   14.9780 C.3   331  ALA331      0.0304
    101  N         11.7150   66.7830   15.3410 N.am  332  PHE332     -0.1976
    102  CA        10.6190   66.6450   16.2720 C.3   332  PHE332      0.1639
    103  C         10.3120   65.1560   16.4900 C.2   332  PHE332      0.2290
    104  O         10.7630   64.2220   15.7690 O.2   332  PHE332     -0.2864
    105  CB         9.4120   67.4970   15.8190 C.3   332  PHE332      0.0560
    106  CG         8.7830   67.0600   14.4860 C.ar  332  PHE332     -0.0200
    107  CD1        7.8140   66.0990   14.4610 C.ar  332  PHE332     -0.0042
    108  CD2        9.1170   67.6740   13.2780 C.ar  332  PHE332     -0.0042
    109  CE1        7.2130   65.7090   13.2940 C.ar  332  PHE332     -0.0003
    110  CE2        8.5550   67.2700   12.1030 C.ar  332  PHE332     -0.0003
    111  CZ         7.5670   66.2750   12.1130 C.ar  332  PHE332     -0.0000
@<TRIPOS>BOND
     1    52    51    1
     2    46    47    1
     3    51    50    1
     4    51    53    1
     5    44    45   ar
     6    44    42   ar
     7    49    48    2
     8    45    43   ar
     9   110   111   ar
    10   110   108   ar
    11   111   109   ar
    12    38    37    2
    13    67    66    1
    14    67    68    2
    15    69    66    1
    16    69    70    1
    17    50    47    1
    18    66    65    1
    19    71    70   ar
    20    71    73   ar
    21    47    48    1
    22    48    54   am
    23    42    40   ar
    24    43    41   ar
    25    70    72   ar
    26    37    36    1
    27    33    32    1
    28   108   106   ar
    29   109   107   ar
    30    73    75   ar
    31    40    41   ar
    32    40    39    1
    33    54    55    1
    34    96    97    1
    35    58    55    1
    36    58    59    1
    37    55    56    1
    38    72    74   ar
    39    36    35    1
    40    36    39    1
    41   107   106   ar
    42    97   100    1
    43    97    98    1
    44    35    29   am
    45   106   105    1
    46    32    34    1
    47    32    31    1
    48    75    74   ar
    49    63    62    1
    50    60    59    1
    51    60    61    1
    52   101    98   am
    53   101   102    1
    54    98    99    2
    55    29    28    1
    56    29    30    2
    57    28    31    1
    58    28    27    1
    59    56    57    2
    60    23    22    2
    61   104   103    2
    62   105   102    1
    63    88    87    2
    64    62    61    2
    65    62    64    1
    66   102   103    1
    67    22    27   am
    68    22    21    1
    69    87    86    1
    70    26    24    1
    71    21    24    1
    72    21    20    1
    73    86    89    1
    74    86    85    1
    75    24    25    1
    76    20    15   am
    77    79    78    2
    78    95    93    1
    79    89    90    1
    80    18    17    1
    81    17    14    1
    82    17    19    1
    83    92    93    2
    84    92    91    1
    85    85    78   am
    86    78    77    1
    87    15    14    1
    88    15    16    2
    89    90    91    1
    90    93    94    1
    91    14    13    1
    92    10     9    2
    93    77    76    1
    94    77    80    1
    95    13     9   am
    96     9     8    1
    97    80    81    1
    98    12    11    1
    99     8     7    1
   100     8    11    1
   101    81    82    1
   102     7     3   am
   103    82    83    1
   104     3     2    1
   105     3     4    2
   106     5     2    1
   107     5     6    1
   108     2     1    1
   109    83    84    1
