@<TRIPOS>MOLECULE
tmp/2fguB01.pdb
 80 74 0 0 0
SMALL
GASTEIGER

@<TRIPOS>ATOM
      1  N         24.7420    2.4880    9.2870 N.3    25  ASP25      -0.1239
      2  CA        23.5650    2.3950   10.1400 C.3    25  ASP25       0.1674
      3  C         23.0550    3.7240   10.6650 C.2    25  ASP25       0.2266
      4  O         23.5360    4.2530   11.6760 O.2    25  ASP25      -0.2867
      5  CB        23.8160    1.4370   11.2940 C.3    25  ASP25       0.1410
      6  CG        22.5520    1.1910   12.1380 C.2    25  ASP25       0.3668
      7  OD1       21.4610    1.7440   11.8480 O.co2  25  ASP25      -0.2456
      8  OD2       22.7090    0.4350   13.1000 O.co2  25  ASP25      -0.2456
      9  N         20.2720    4.3060   12.0840 N.3    27  GLY27      -0.1210
     10  CA        19.6460    4.0900   13.3860 C.3    27  GLY27       0.1956
     11  C         20.5750    4.0850   14.5930 C.2    27  GLY27       0.2612
     12  O         20.1280    4.2050   15.7300 O.2    27  GLY27      -0.2717
     13  N         21.8760    3.9740   14.3790 N.am   28  ALA28      -0.1965
     14  CA        22.7980    3.9210   15.4940 C.3    28  ALA28       0.1728
     15  C         23.4580    5.2830   15.7530 C.2    28  ALA28       0.2616
     16  O         24.0460    5.8810   14.8450 O.2    28  ALA28      -0.2715
     17  CB        23.8350    2.8570   15.2320 C.3    28  ALA28       0.0334
     18  N         23.3410    5.7690   16.9910 N.am   29  ASP29      -0.1957
     19  CA        23.9830    7.0130   17.4150 C.3    29  ASP29       0.1840
     20  C         25.5150    6.8580   17.3770 C.2    29  ASP29       0.2622
     21  O         26.2370    7.7680   16.9800 O.2    29  ASP29      -0.2715
     22  CB        23.6140    7.3790   18.8580 C.3    29  ASP29       0.1450
     23  CG        22.1250    7.5950   19.0820 C.2    29  ASP29       0.3671
     24  OD1       21.3710    7.8720   18.1360 O.co2  29  ASP29      -0.2456
     25  OD2       21.6920    7.4840   20.2460 O.co2  29  ASP29      -0.2456
     26  N         25.9800    5.6920   17.8120 N.am   30  ASP30      -0.1971
     27  CA        27.3910    5.3860   17.9890 C.3    30  ASP30       0.1709
     28  C         27.8950    4.3220   17.0100 C.2    30  ASP30       0.2293
     29  O         27.1270    3.6210   16.3650 O.2    30  ASP30      -0.2864
     30  CB        27.6020    4.8590   19.4030 C.3    30  ASP30       0.1436
     31  CG        27.1230    5.8400   20.4530 C.2    30  ASP30       0.3671
     32  OD1       27.5510    7.0080   20.4210 O.co2  30  ASP30      -0.2456
     33  OD2       26.3030    5.4420   21.2930 O.co2  30  ASP30      -0.2456
     34  N         29.8740    0.8930   16.7160 N.3    32  VAL32      -0.1245
     35  CA        30.1350   -0.2450   17.5740 C.3    32  VAL32       0.1561
     36  C         30.7710   -1.3470   16.7390 C.2    32  VAL32       0.2260
     37  O         30.1530   -1.8550   15.8180 O.2    32  VAL32      -0.2867
     38  CB        28.8480   -0.7930   18.2500 C.3    32  VAL32       0.0252
     39  CG1       29.1750   -1.9820   19.1620 C.3    32  VAL32       0.0019
     40  CG2       28.1610    0.2780   19.0810 C.3    32  VAL32       0.0019
     41  N         26.3470    0.8020   26.5200 N.3    47  ILE47      -0.1231
     42  CA        25.4040    1.3030   25.5210 C.3    47  ILE47       0.1692
     43  C         24.2580    0.3200   25.3010 C.2    47  ILE47       0.2593
     44  O         24.3780   -0.8730   25.5440 O.2    47  ILE47      -0.2718
     45  CB        26.0540    1.5370   24.1280 C.3    47  ILE47       0.0266
     46  CG1       26.5580    0.2140   23.5450 C.3    47  ILE47       0.0019
     47  CG2       27.1950    2.5430   24.2110 C.3    47  ILE47       0.0020
     48  CD1       27.1670    0.3930   22.1830 C.3    47  ILE47       0.0001
     49  N         23.1500    0.8550   24.8070 N.am   48  GLY48      -0.1942
     50  CA        21.8900    0.1390   24.7570 C.3    48  GLY48       0.2014
     51  C         21.3950   -0.0340   23.3380 C.2    48  GLY48       0.2639
     52  O         21.5760    0.8110   22.4600 O.2    48  GLY48      -0.2714
     53  N         20.7740   -1.1740   23.1130 N.am   49  GLY49      -0.1939
     54  CA        20.1980   -1.4370   21.8120 C.3    49  GLY49       0.2014
     55  C         18.8350   -2.0500   22.0230 C.2    49  GLY49       0.2638
     56  O         18.2510   -1.9580   23.1060 O.2    49  GLY49      -0.2714
     57  N         18.3610   -2.7110   20.9820 N.am   50  ILE50      -0.1977
     58  CA        17.0130   -3.2120   20.9960 C.3    50  ILE50       0.1596
     59  C         16.8860   -4.3080   22.0300 C.2    50  ILE50       0.2287
     60  O         15.8120   -4.4680   22.6110 O.2    50  ILE50      -0.2864
     61  CB        16.5660   -3.7110   19.6220 C.3    50  ILE50       0.0276
     62  CG1       15.0390   -3.6480   19.5470 C.3    50  ILE50       0.0022
     63  CG2       17.1320   -5.1090   19.3320 C.3    50  ILE50       0.0022
     64  CD1       14.5180   -3.7690   18.1530 C.3    50  ILE50       0.0001
     65  N         24.9030   -3.4230   26.8710 N.3    54  ILE54      -0.1245
     66  CA        26.1490   -4.1580   26.8510 C.3    54  ILE54       0.1561
     67  C         27.2650   -3.2500   27.3810 C.2    54  ILE54       0.2260
     68  O         27.1590   -2.0190   27.4020 O.2    54  ILE54      -0.2867
     69  CB        26.5090   -4.6910   25.4300 C.3    54  ILE54       0.0252
     70  CG1       26.6540   -3.5280   24.4410 C.3    54  ILE54       0.0019
     71  CG2       25.4710   -5.7100   24.9140 C.3    54  ILE54       0.0019
     72  CD1       27.2620   -3.9070   23.1280 C.3    54  ILE54       0.0001
     73  N         29.1720   -1.9840   13.2380 N.3    84  ILE84      -0.1245
     74  CA        28.1820   -0.9640   12.9380 C.3    84  ILE84       0.1561
     75  C         28.8160    0.4290   12.8890 C.2    84  ILE84       0.2260
     76  O         29.4340    0.8660   13.8540 O.2    84  ILE84      -0.2867
     77  CB        27.0830   -1.0110   14.0150 C.3    84  ILE84       0.0252
     78  CG1       26.3470   -2.3470   13.9310 C.3    84  ILE84       0.0019
     79  CG2       26.1330    0.1090   13.8460 C.3    84  ILE84       0.0019
     80  CD1       25.9140   -2.8450   15.2910 C.3    84  ILE84       0.0001
@<TRIPOS>BOND
     1     1     2    1
     2     2     3    1
     3     2     5    1
     4     3     4    2
     5     5     6    1
     6     7     6   ar
     7     9    10    1
     8     6     8   ar
     9    75    74    1
    10    75    76    2
    11    74    73    1
    12    74    77    1
    13    10    11    1
    14    79    77    1
    15    78    77    1
    16    78    80    1
    17    13    11   am
    18    13    14    1
    19    11    12    2
    20    16    15    2
    21    17    14    1
    22    14    15    1
    23    15    18   am
    24    37    36    2
    25    29    28    2
    26    34    35    1
    27    36    35    1
    28    21    20    2
    29    18    19    1
    30    28    27    1
    31    20    19    1
    32    20    26   am
    33    19    22    1
    34    35    38    1
    35    26    27    1
    36    27    30    1
    37    24    23   ar
    38    64    62    1
    39    38    40    1
    40    38    39    1
    41    22    23    1
    42    23    25   ar
    43    63    61    1
    44    30    31    1
    45    62    61    1
    46    61    58    1
    47    32    31   ar
    48    31    33   ar
    49    57    58    1
    50    57    55   am
    51    58    59    1
    52    54    55    1
    53    54    53    1
    54    55    56    2
    55    59    60    2
    56    48    46    1
    57    52    51    2
    58    53    51   am
    59    72    70    1
    60    51    50    1
    61    46    45    1
    62    45    47    1
    63    45    42    1
    64    70    69    1
    65    50    49    1
    66    49    43   am
    67    71    69    1
    68    43    42    1
    69    43    44    2
    70    69    66    1
    71    42    41    1
    72    66    65    1
    73    66    67    1
    74    67    68    2
