@<TRIPOS>MOLECULE
tmp/2fguB00.pdb
 72 66 0 0 0
SMALL
GASTEIGER

@<TRIPOS>ATOM
      1  N         21.4360   -5.3810    3.0230 N.3     8  ARG8       -0.1245
      2  CA        22.2070   -4.6800    4.0350 C.3     8  ARG8        0.1563
      3  C         23.3220   -3.7990    3.4490 C.2     8  ARG8        0.2260
      4  O         24.1180   -4.2630    2.6220 O.2     8  ARG8       -0.2867
      5  CB        22.8050   -5.6910    5.0070 C.3     8  ARG8        0.0307
      6  CG        21.7710   -6.3200    5.9150 C.3     8  ARG8        0.0489
      7  CD        22.4000   -7.3390    6.8420 C.3     8  ARG8        0.2205
      8  NE        21.3780   -8.0460    7.6180 N.pl3   8  ARG8       -0.0865
      9  CZ        21.5080   -9.2980    8.0490 C.cat   8  ARG8        0.5346
     10  NH1       22.6250   -9.9780    7.7920 N.pl3   8  ARG8        0.1354
     11  NH2       20.5290   -9.8660    8.7410 N.pl3   8  ARG8        0.1354
     12  N         28.4340   -2.1730    8.7010 N.3    23  LEU23      -0.1245
     13  CA        27.1010   -1.7900    8.2690 C.3    23  LEU23       0.1561
     14  C         26.9130   -0.2850    8.4180 C.2    23  LEU23       0.2260
     15  O         27.1880    0.2810    9.4810 O.2    23  LEU23      -0.2867
     16  CB        26.0830   -2.5370    9.1370 C.3    23  LEU23       0.0270
     17  CG        24.5740   -2.3690    8.9900 C.3    23  LEU23       0.0019
     18  CD1       24.0810   -3.0970    7.7470 C.3    23  LEU23       0.0001
     19  CD2       23.8950   -2.9560   10.2330 C.3    23  LEU23       0.0001
     20  N         24.7420    2.4880    9.2870 N.3    25  ASP25      -0.1239
     21  CA        23.5650    2.3950   10.1400 C.3    25  ASP25       0.1674
     22  C         23.0550    3.7240   10.6650 C.2    25  ASP25       0.2266
     23  O         23.5360    4.2530   11.6760 O.2    25  ASP25      -0.2867
     24  CB        23.8160    1.4370   11.2940 C.3    25  ASP25       0.1410
     25  CG        22.5520    1.1910   12.1380 C.2    25  ASP25       0.3668
     26  OD1       21.4610    1.7440   11.8480 O.co2  25  ASP25      -0.2456
     27  OD2       22.7090    0.4350   13.1000 O.co2  25  ASP25      -0.2456
     28  N         20.2720    4.3060   12.0840 N.3    27  GLY27      -0.1210
     29  CA        19.6460    4.0900   13.3860 C.3    27  GLY27       0.1956
     30  C         20.5750    4.0850   14.5930 C.2    27  GLY27       0.2611
     31  O         20.1280    4.2050   15.7300 O.2    27  GLY27      -0.2717
     32  N         21.8760    3.9740   14.3790 N.am   28  ALA28      -0.1979
     33  CA        22.7980    3.9210   15.4940 C.3    28  ALA28       0.1597
     34  C         23.4580    5.2830   15.7530 C.2    28  ALA28       0.2287
     35  O         24.0460    5.8810   14.8450 O.2    28  ALA28      -0.2864
     36  CB        23.8350    2.8570   15.2320 C.3    28  ALA28       0.0319
     37  N         18.3610   -2.7110   20.9820 N.3    50  ILE50      -0.1245
     38  CA        17.0130   -3.2120   20.9960 C.3    50  ILE50       0.1561
     39  C         16.8860   -4.3080   22.0300 C.2    50  ILE50       0.2260
     40  O         15.8120   -4.4680   22.6110 O.2    50  ILE50      -0.2867
     41  CB        16.5660   -3.7110   19.6220 C.3    50  ILE50       0.0252
     42  CG1       15.0390   -3.6480   19.5470 C.3    50  ILE50       0.0019
     43  CG2       17.1320   -5.1090   19.3320 C.3    50  ILE50       0.0019
     44  CD1       14.5180   -3.7690   18.1530 C.3    50  ILE50       0.0001
     45  N         29.1250   -7.9690   19.5470 N.3    80  SER80      -0.1203
     46  CA        28.1420   -7.6450   18.5070 C.3    80  SER80       0.2005
     47  C         28.2550   -8.6680   17.3790 C.2    80  SER80       0.2461
     48  O         29.3440   -9.1930   17.1370 O.2    80  SER80      -0.2732
     49  CB        28.3960   -6.2230   17.9860 C.3    80  SER80       0.2103
     50  OG        27.5630   -5.9160   16.8830 O.3    80  SER80      -0.2182
     51  N         27.1470   -8.9750   16.6850 N.am   81  PRO81      -0.2717
     52  CA        27.2650   -9.8370   15.5090 C.3    81  PRO81       0.1535
     53  C         27.7880   -9.1270   14.2800 C.2    81  PRO81       0.2598
     54  O         28.1650   -9.7850   13.3020 O.2    81  PRO81      -0.2715
     55  CB        25.8200  -10.2860   15.2500 C.3    81  PRO81       0.0310
     56  CG        24.9920   -9.1470   15.7800 C.3    81  PRO81       0.0237
     57  CD        25.7560   -8.5560   16.9310 C.3    81  PRO81       0.0939
     58  N         27.8100   -7.7940   14.3440 N.am   82  VAL82      -0.1978
     59  CA        28.0570   -6.9570   13.1840 C.3    82  VAL82       0.1596
     60  C         28.8910   -5.7270   13.5840 C.2    82  VAL82       0.2287
     61  O         28.7430   -5.1700   14.6690 O.2    82  VAL82      -0.2864
     62  CB        26.6960   -6.5190   12.5630 C.3    82  VAL82       0.0276
     63  CG1       26.9000   -5.5900   11.3870 C.3    82  VAL82       0.0022
     64  CG2       25.9100   -7.7290   12.0750 C.3    82  VAL82       0.0022
     65  N         29.1720   -1.9840   13.2380 N.3    84  ILE84      -0.1245
     66  CA        28.1820   -0.9640   12.9380 C.3    84  ILE84       0.1561
     67  C         28.8160    0.4290   12.8890 C.2    84  ILE84       0.2260
     68  O         29.4340    0.8660   13.8540 O.2    84  ILE84      -0.2867
     69  CB        27.0830   -1.0110   14.0150 C.3    84  ILE84       0.0252
     70  CG1       26.3470   -2.3470   13.9310 C.3    84  ILE84       0.0019
     71  CG2       26.1330    0.1090   13.8460 C.3    84  ILE84       0.0019
     72  CD1       25.9140   -2.8450   15.2910 C.3    84  ILE84       0.0001
@<TRIPOS>BOND
     1     4     3    2
     2     1     2    1
     3     3     2    1
     4     2     5    1
     5     5     6    1
     6     6     7    1
     7     7     8    1
     8     8     9    2
     9    18    17    1
    10    10     9    1
    11     9    11    1
    12    13    14    1
    13    13    12    1
    14    13    16    1
    15    14    15    2
    16    17    16    1
    17    17    19    1
    18    20    21    1
    19    21    22    1
    20    21    24    1
    21    22    23    2
    22    24    25    1
    23    63    62    1
    24    26    25   ar
    25    64    62    1
    26    28    29    1
    27    25    27   ar
    28    62    59    1
    29    67    66    1
    30    67    68    2
    31    66    65    1
    32    66    69    1
    33    59    60    1
    34    59    58    1
    35    54    53    2
    36    29    30    1
    37    60    61    2
    38    71    69    1
    39    70    69    1
    40    70    72    1
    41    53    58   am
    42    53    52    1
    43    32    30   am
    44    32    33    1
    45    30    31    2
    46    35    34    2
    47    36    33    1
    48    55    52    1
    49    55    56    1
    50    33    34    1
    51    52    51    1
    52    56    57    1
    53    51    57    1
    54    51    47   am
    55    50    49    1
    56    48    47    2
    57    47    46    1
    58    49    46    1
    59    44    42    1
    60    46    45    1
    61    43    41    1
    62    42    41    1
    63    41    38    1
    64    37    38    1
    65    38    39    1
    66    39    40    2
