@<TRIPOS>MOLECULE
tmp/2fgvA01.pdb
 74 68 0 0 0
SMALL
GASTEIGER

@<TRIPOS>ATOM
      1  N         19.1730   12.4490   15.2970 N.3     8  ARG8       -0.1245
      2  CA        18.5000   11.2090   14.9360 C.3     8  ARG8        0.1563
      3  C         17.4830   11.5230   13.8430 C.2     8  ARG8        0.2260
      4  O         16.7250   12.4870   13.9720 O.2     8  ARG8       -0.2867
      5  CB        17.8030   10.6040   16.1520 C.3     8  ARG8        0.0307
      6  CG        18.7640   10.2130   17.2620 C.3     8  ARG8        0.0489
      7  CD        18.0470    9.5820   18.4340 C.3     8  ARG8        0.2205
      8  NE        18.9490    9.3250   19.5510 N.pl3   8  ARG8       -0.0865
      9  CZ        18.5610    8.8580   20.7350 C.cat   8  ARG8        0.5346
     10  NH1       17.2820    8.5840   20.9660 N.pl3   8  ARG8        0.1354
     11  NH2       19.4550    8.6560   21.6940 N.pl3   8  ARG8        0.1354
     12  N         12.0950    6.4520   13.6630 N.3    23  LEU23      -0.1245
     13  CA        13.5030    6.6020   13.3140 C.3    23  LEU23       0.1561
     14  C         13.7570    5.9030   11.9820 C.2    23  LEU23       0.2260
     15  O         13.5170    4.7080   11.8660 O.2    23  LEU23      -0.2867
     16  CB        14.3370    5.9280   14.4090 C.3    23  LEU23       0.0270
     17  CG        15.8600    6.0020   14.3400 C.3    23  LEU23       0.0019
     18  CD1       16.3320    7.4290   14.5340 C.3    23  LEU23       0.0001
     19  CD2       16.4520    5.1000   15.4030 C.3    23  LEU23       0.0001
     20  N         15.9330    3.9090    9.8330 N.3    25  ASP25      -0.1239
     21  CA        16.9630    3.0610   10.4330 C.3    25  ASP25       0.1674
     22  C         17.5360    2.0800    9.4100 C.2    25  ASP25       0.2266
     23  O         17.0240    0.9820    9.2390 O.2    25  ASP25      -0.2867
     24  CB        16.3260    2.3390   11.6230 C.3    25  ASP25       0.1410
     25  CG        17.3260    1.6280   12.4920 C.2    25  ASP25       0.3668
     26  OD1       18.4860    1.4950   12.0610 O.co2  25  ASP25      -0.2456
     27  OD2       16.9400    1.2240   13.6120 O.co2  25  ASP25      -0.2456
     28  N         20.1530    0.3520    9.5300 N.3    27  GLY27      -0.1210
     29  CA        20.7170   -0.8270   10.1830 C.3    27  GLY27       0.1956
     30  C         19.6920   -1.8050   10.7270 C.2    27  GLY27       0.2611
     31  O         20.0680   -2.8140   11.3320 O.2    27  GLY27      -0.2717
     32  N         18.4080   -1.5390   10.5030 N.am   28  ALA28      -0.1979
     33  CA        17.3570   -2.4580   10.9240 C.3    28  ALA28       0.1597
     34  C         16.7930   -3.2260    9.7440 C.2    28  ALA28       0.2287
     35  O         16.3140   -2.6240    8.7890 O.2    28  ALA28      -0.2864
     36  CB        16.2340   -1.7150   11.6170 C.3    28  ALA28       0.0319
     37  N         21.8580   -5.1290   19.5500 N.3    50  ILE50      -0.1245
     38  CA        22.8170   -5.0380   20.6400 C.3    50  ILE50       0.1561
     39  C         22.0060   -5.2540   21.9140 C.2    50  ILE50       0.2260
     40  O         20.8660   -4.7980   22.0260 O.2    50  ILE50      -0.2867
     41  CB        23.6540   -3.7360   20.6570 C.3    50  ILE50       0.0252
     42  CG1       23.0620   -2.6840   21.5920 C.3    50  ILE50       0.0019
     43  CG2       23.8950   -3.1930   19.2520 C.3    50  ILE50       0.0019
     44  CD1       23.8590   -2.4870   22.8460 C.3    50  ILE50       0.0001
     45  N         10.2820   -1.5190   22.8920 N.3    80  ASN80      -0.1226
     46  CA        11.3250   -0.5430   22.6000 C.3    80  ASN80       0.1770
     47  C         10.8540    0.8950   22.8210 C.2    80  ASN80       0.2439
     48  O          9.6630    1.1850   22.7220 O.2    80  ASN80      -0.2733
     49  CB        11.8460   -0.7230   21.1640 C.3    80  ASN80       0.1168
     50  CG        10.7440   -1.0700   20.1620 C.2    80  ASN80       0.2627
     51  OD1        9.9680   -2.0110   20.3690 O.2    80  ASN80      -0.2716
     52  ND2       10.6790   -0.3180   19.0570 N.am   80  ASN80      -0.0877
     53  N         11.7880    1.8060   23.1340 N.am   81  PRO81      -0.2718
     54  CA        11.4370    3.1940   23.4270 C.3    81  PRO81       0.1535
     55  C         11.1210    4.0560   22.2140 C.2    81  PRO81       0.2598
     56  O         10.5300    5.1250   22.3670 O.2    81  PRO81      -0.2715
     57  CB        12.6910    3.7390   24.1120 C.3    81  PRO81       0.0310
     58  CG        13.8000    2.8900   23.6170 C.3    81  PRO81       0.0237
     59  CD        13.2350    1.5540   23.2610 C.3    81  PRO81       0.0939
     60  N         11.5260    3.5990   21.0320 N.am   82  VAL82      -0.1978
     61  CA        11.3810    4.3750   19.8050 C.3    82  VAL82       0.1596
     62  C         10.8650    3.4550   18.7050 C.2    82  VAL82       0.2287
     63  O         11.1960    2.2710   18.6670 O.2    82  VAL82      -0.2864
     64  CB        12.7240    5.0250   19.3920 C.3    82  VAL82       0.0276
     65  CG1       13.7660    3.9770   19.0600 C.3    82  VAL82       0.0022
     66  CG2       12.5600    5.9970   18.2210 C.3    82  VAL82       0.0022
     67  N         11.0940    2.2400   14.9890 N.3    84  ILE84      -0.1245
     68  CA        12.1430    2.2180   13.9720 C.3    84  ILE84       0.1561
     69  C         11.5890    1.7120   12.6510 C.2    84  ILE84       0.2260
     70  O         10.8780    0.7030   12.6290 O.2    84  ILE84      -0.2867
     71  CB        13.3850    1.4230   14.4210 C.3    84  ILE84       0.0252
     72  CG1       13.1180   -0.0780   14.4950 C.3    84  ILE84       0.0019
     73  CG2       13.8810    1.9340   15.7650 C.3    84  ILE84       0.0019
     74  CD1       14.3120   -0.8770   14.9930 C.3    84  ILE84       0.0001
@<TRIPOS>BOND
     1    35    34    2
     2    23    22    2
     3    22    21    1
     4    28    29    1
     5    34    33    1
     6    20    21    1
     7    29    30    1
     8    21    24    1
     9    32    30   am
    10    32    33    1
    11    30    31    2
    12    33    36    1
    13    24    25    1
    14    15    14    2
    15    14    13    1
    16    26    25   ar
    17    25    27   ar
    18    70    69    2
    19    69    68    1
    20    13    12    1
    21    13    16    1
    22     3     4    2
    23     3     2    1
    24    68    71    1
    25    68    67    1
    26    17    16    1
    27    17    18    1
    28    17    19    1
    29    71    72    1
    30    71    73    1
    31    72    74    1
    32     2     1    1
    33     2     5    1
    34     5     6    1
    35     6     7    1
    36    66    64    1
    37     7     8    1
    38    63    62    2
    39    62    61    1
    40    52    50   am
    41    65    64    1
    42    43    41    1
    43    64    61    1
    44    37    38    1
    45     8     9    2
    46    61    60    1
    47    50    51    2
    48    50    49    1
    49    38    41    1
    50    38    39    1
    51    41    42    1
    52     9    10    1
    53     9    11    1
    54    60    55   am
    55    49    46    1
    56    42    44    1
    57    39    40    2
    58    55    56    2
    59    55    54    1
    60    46    47    1
    61    46    45    1
    62    48    47    2
    63    47    53   am
    64    53    59    1
    65    53    54    1
    66    59    58    1
    67    54    57    1
    68    58    57    1
