@<TRIPOS>MOLECULE
tmp/2fgvA00.pdb
 91 85 0 0 0
SMALL
GASTEIGER

@<TRIPOS>ATOM
      1  N         12.0950    6.4520   13.6630 N.3    23  LEU23      -0.1245
      2  CA        13.5030    6.6020   13.3140 C.3    23  LEU23       0.1561
      3  C         13.7570    5.9030   11.9820 C.2    23  LEU23       0.2260
      4  O         13.5170    4.7080   11.8660 O.2    23  LEU23      -0.2867
      5  CB        14.3370    5.9280   14.4090 C.3    23  LEU23       0.0270
      6  CG        15.8600    6.0020   14.3400 C.3    23  LEU23       0.0019
      7  CD1       16.3320    7.4290   14.5340 C.3    23  LEU23       0.0001
      8  CD2       16.4520    5.1000   15.4030 C.3    23  LEU23       0.0001
      9  N         15.9330    3.9090    9.8330 N.3    25  ASP25      -0.1239
     10  CA        16.9630    3.0610   10.4330 C.3    25  ASP25       0.1674
     11  C         17.5360    2.0800    9.4100 C.2    25  ASP25       0.2266
     12  O         17.0240    0.9820    9.2390 O.2    25  ASP25      -0.2867
     13  CB        16.3260    2.3390   11.6230 C.3    25  ASP25       0.1410
     14  CG        17.3260    1.6280   12.4920 C.2    25  ASP25       0.3668
     15  OD1       18.4860    1.4950   12.0610 O.co2  25  ASP25      -0.2456
     16  OD2       16.9400    1.2240   13.6120 O.co2  25  ASP25      -0.2456
     17  N         20.1530    0.3520    9.5300 N.3    27  GLY27      -0.1210
     18  CA        20.7170   -0.8270   10.1830 C.3    27  GLY27       0.1956
     19  C         19.6920   -1.8050   10.7270 C.2    27  GLY27       0.2612
     20  O         20.0680   -2.8140   11.3320 O.2    27  GLY27      -0.2717
     21  N         18.4080   -1.5390   10.5030 N.am   28  ALA28      -0.1965
     22  CA        17.3570   -2.4580   10.9240 C.3    28  ALA28       0.1728
     23  C         16.7930   -3.2260    9.7440 C.2    28  ALA28       0.2616
     24  O         16.3140   -2.6240    8.7890 O.2    28  ALA28      -0.2715
     25  CB        16.2340   -1.7150   11.6170 C.3    28  ALA28       0.0334
     26  N         16.8320   -4.5550    9.8230 N.am   29  ASP29      -0.1957
     27  CA        16.1960   -5.3860    8.8100 C.3    29  ASP29       0.1840
     28  C         14.6890   -5.1890    8.8060 C.2    29  ASP29       0.2622
     29  O         14.0560   -5.2190    7.7470 O.2    29  ASP29      -0.2715
     30  CB        16.4240   -6.8650    9.1080 C.3    29  ASP29       0.1450
     31  CG        17.8470   -7.3150    8.8950 C.2    29  ASP29       0.3671
     32  OD1       18.6750   -6.5350    8.3920 O.co2  29  ASP29      -0.2456
     33  OD2       18.1020   -8.4890    9.2380 O.co2  29  ASP29      -0.2456
     34  N         14.1390   -5.0120   10.0050 N.am   30  ASP30      -0.1971
     35  CA        12.7020   -5.0260   10.2510 C.3    30  ASP30       0.1709
     36  C         12.2200   -3.6710   10.7520 C.2    30  ASP30       0.2293
     37  O         13.0080   -2.8240   11.1670 O.2    30  ASP30      -0.2864
     38  CB        12.3670   -6.0780   11.3120 C.3    30  ASP30       0.1436
     39  CG        12.8480   -7.4660   10.9350 C.2    30  ASP30       0.3671
     40  OD1       12.5170   -7.9460    9.8290 O.co2  30  ASP30      -0.2456
     41  OD2       13.5690   -8.0860   11.7420 O.co2  30  ASP30      -0.2456
     42  N         10.1110   -1.9890   13.6660 N.3    32  VAL32      -0.1245
     43  CA         9.7540   -2.3560   15.0340 C.3    32  VAL32       0.1561
     44  C          9.1400   -1.1470   15.7310 C.2    32  VAL32       0.2260
     45  O          9.7780   -0.0990   15.8740 O.2    32  VAL32      -0.2867
     46  CB        10.9600   -2.8610   15.8490 C.3    32  VAL32       0.0252
     47  CG1       10.4790   -3.5010   17.1400 C.3    32  VAL32       0.0019
     48  CG2       11.7750   -3.8580   15.0350 C.3    32  VAL32       0.0019
     49  N         13.4840  -11.0780   17.7930 N.3    47  ILE47      -0.1231
     50  CA        14.4280  -10.2680   17.0280 C.3    47  ILE47       0.1692
     51  C         15.5310   -9.7910   17.9570 C.2    47  ILE47       0.2593
     52  O         15.3440   -9.6540   19.1620 O.2    47  ILE47      -0.2718
     53  CB        13.7640   -9.0590   16.3460 C.3    47  ILE47       0.0266
     54  CG1       13.0760   -8.1600   17.3760 C.3    47  ILE47       0.0019
     55  CG2       12.8030   -9.5350   15.2800 C.3    47  ILE47       0.0020
     56  CD1       12.6780   -6.8050   16.8450 C.3    47  ILE47       0.0001
     57  N         16.6970   -9.5450   17.3830 N.am   48  GLY48      -0.1942
     58  CA        17.8440   -9.1960   18.1890 C.3    48  GLY48       0.2014
     59  C         18.5700   -7.9850   17.6620 C.2    48  GLY48       0.2639
     60  O         18.3680   -7.5420   16.5300 O.2    48  GLY48      -0.2714
     61  N         19.4160   -7.4600   18.5330 N.am   49  GLY49      -0.1939
     62  CA        20.3250   -6.3930   18.1600 C.3    49  GLY49       0.2014
     63  C         21.3110   -6.3100   19.2990 C.2    49  GLY49       0.2638
     64  O         21.5730   -7.3100   19.9620 O.2    49  GLY49      -0.2714
     65  N         21.8580   -5.1290   19.5500 N.am   50  ILE50      -0.1977
     66  CA        22.8170   -5.0380   20.6400 C.3    50  ILE50       0.1596
     67  C         22.0060   -5.2540   21.9140 C.2    50  ILE50       0.2287
     68  O         20.8660   -4.7980   22.0260 O.2    50  ILE50      -0.2864
     69  CB        23.6540   -3.7360   20.6570 C.3    50  ILE50       0.0276
     70  CG1       23.0620   -2.6840   21.5920 C.3    50  ILE50       0.0022
     71  CG2       23.8950   -3.1930   19.2520 C.3    50  ILE50       0.0022
     72  CD1       23.8590   -2.4870   22.8460 C.3    50  ILE50       0.0001
     73  N         18.1210  -10.5510   22.4290 N.3    53  PHE53      -0.1241
     74  CA        16.8690  -10.7680   21.7280 C.3    53  PHE53       0.1605
     75  C         15.6810  -10.3520   22.5800 C.2    53  PHE53       0.2264
     76  O         15.7200  -10.4420   23.8090 O.2    53  PHE53      -0.2867
     77  CB        16.7330  -12.2400   21.3300 C.3    53  PHE53       0.0534
     78  CG        17.4730  -12.5930   20.0700 C.ar   53  PHE53      -0.0203
     79  CD1       18.8400  -12.7840   20.0830 C.ar   53  PHE53      -0.0042
     80  CD2       16.8030  -12.7000   18.8650 C.ar   53  PHE53      -0.0042
     81  CE1       19.5220  -13.0940   18.9290 C.ar   53  PHE53      -0.0003
     82  CE2       17.4840  -13.0140   17.7040 C.ar   53  PHE53      -0.0003
     83  CZ        18.8440  -13.2030   17.7360 C.ar   53  PHE53      -0.0000
     84  N         11.0940    2.2400   14.9890 N.3    84  ILE84      -0.1245
     85  CA        12.1430    2.2180   13.9720 C.3    84  ILE84       0.1561
     86  C         11.5890    1.7120   12.6510 C.2    84  ILE84       0.2260
     87  O         10.8780    0.7030   12.6290 O.2    84  ILE84      -0.2867
     88  CB        13.3850    1.4230   14.4210 C.3    84  ILE84       0.0252
     89  CG1       13.1180   -0.0780   14.4950 C.3    84  ILE84       0.0019
     90  CG2       13.8810    1.9340   15.7650 C.3    84  ILE84       0.0019
     91  CD1       14.3120   -0.8770   14.9930 C.3    84  ILE84       0.0001
@<TRIPOS>BOND
     1    29    28    2
     2    32    31   ar
     3    24    23    2
     4    28    27    1
     5    28    34   am
     6    27    30    1
     7    27    26    1
     8    31    30    1
     9    31    33   ar
    10    12    11    2
    11    11    10    1
    12    17    18    1
    13    23    26   am
    14    23    22    1
    15    40    39   ar
    16     9    10    1
    17    34    35    1
    18    18    19    1
    19    35    36    1
    20    35    38    1
    21    10    13    1
    22    21    19   am
    23    21    22    1
    24    19    20    2
    25    36    37    2
    26    22    25    1
    27    39    38    1
    28    39    41   ar
    29    13    14    1
    30     4     3    2
    31     3     2    1
    32    15    14   ar
    33    14    16   ar
    34    87    86    2
    35    86    85    1
    36     2     1    1
    37     2     5    1
    38    42    43    1
    39    85    88    1
    40    85    84    1
    41     6     5    1
    42     6     7    1
    43     6     8    1
    44    88    89    1
    45    88    90    1
    46    89    91    1
    47    43    44    1
    48    43    46    1
    49    48    46    1
    50    55    53    1
    51    44    45    2
    52    46    47    1
    53    53    50    1
    54    53    54    1
    55    60    59    2
    56    56    54    1
    57    50    49    1
    58    50    51    1
    59    57    51   am
    60    57    58    1
    61    59    58    1
    62    59    61   am
    63    82    83   ar
    64    82    80   ar
    65    83    81   ar
    66    51    52    2
    67    62    61    1
    68    62    63    1
    69    80    78   ar
    70    81    79   ar
    71    71    69    1
    72    63    65   am
    73    63    64    2
    74    65    66    1
    75    78    79   ar
    76    78    77    1
    77    66    69    1
    78    66    67    1
    79    69    70    1
    80    77    74    1
    81    70    72    1
    82    74    73    1
    83    74    75    1
    84    67    68    2
    85    75    76    2
