@<TRIPOS>MOLECULE
tmp/2fh5B00.pdb
 174 170 0 0 0
SMALL
GASTEIGER

@<TRIPOS>ATOM
      1  N         34.8440   42.8650   32.6000 N.3     9  CYS9       -0.1221
      2  CA        34.2870   44.1570   32.9940 C.3     9  CYS9        0.1808
      3  C         34.8190   45.2020   32.0380 C.2     9  CYS9        0.2601
      4  O         35.9640   45.1120   31.6030 O.2     9  CYS9       -0.2717
      5  CB        34.7510   44.5320   34.3960 C.3     9  CYS9        0.0970
      6  SG        33.8920   43.6300   35.6730 S.3     9  CYS9       -0.0800
      7  N         33.9890   46.1780   31.7020 N.am   10  ASP10      -0.1959
      8  CA        34.4210   47.2380   30.8090 C.3    10  ASP10       0.1840
      9  C         34.6850   46.8710   29.3650 C.2    10  ASP10       0.2623
     10  O         35.2930   47.6770   28.6510 O.2    10  ASP10      -0.2715
     11  CB        35.6940   47.9040   31.3500 C.3    10  ASP10       0.1450
     12  CG        35.4520   48.6250   32.6380 C.2    10  ASP10       0.3671
     13  OD1       34.6450   49.5920   32.6240 O.co2  10  ASP10      -0.2456
     14  OD2       36.0550   48.2250   33.6630 O.co2  10  ASP10      -0.2456
     15  N         34.2860   45.6850   28.9170 N.am   11  SER11      -0.1936
     16  CA        34.5480   45.3720   27.5160 C.3    11  SER11       0.2055
     17  C         33.5410   46.1520   26.6360 C.2    11  SER11       0.2644
     18  O         33.8100   46.4170   25.4740 O.2    11  SER11      -0.2714
     19  CB        34.4880   43.8620   27.2740 C.3    11  SER11       0.2130
     20  OG        33.3060   43.3000   27.7960 O.3    11  SER11      -0.2179
     21  N         32.4070   46.5430   27.2340 N.am   12  GLY12      -0.1939
     22  CA        31.3930   47.3220   26.5400 C.3    12  GLY12       0.2014
     23  C         30.0730   46.6030   26.3050 C.2    12  GLY12       0.2639
     24  O         29.3090   46.9900   25.4220 O.2    12  GLY12      -0.2714
     25  N         29.7910   45.5690   27.0870 N.am   13  LYS13      -0.1963
     26  CA        28.5730   44.7860   26.8870 C.3    13  LYS13       0.1728
     27  C         27.3120   45.6060   27.0160 C.2    13  LYS13       0.2617
     28  O         26.4400   45.5350   26.1570 O.2    13  LYS13      -0.2715
     29  CB        28.5050   43.5850   27.8620 C.3    13  LYS13       0.0311
     30  CG        29.6550   42.5640   27.7010 C.3    13  LYS13       0.0038
     31  CD        29.6430   41.4780   28.8080 C.3    13  LYS13       0.0206
     32  CE        29.8120   42.0540   30.2160 C.3    13  LYS13       0.1093
     33  NZ        31.0930   42.7850   30.4120 N.3    13  LYS13      -0.1314
     34  N         27.2180   46.4060   28.0760 N.am   14  THR14      -0.1937
     35  CA        26.0230   47.1900   28.2720 C.3    14  THR14       0.2028
     36  C         25.8490   48.2820   27.2390 C.2    14  THR14       0.2642
     37  O         24.7280   48.5160   26.8100 O.2    14  THR14      -0.2714
     38  CB        25.9820   47.7780   29.6790 C.3    14  THR14       0.1808
     39  OG1       26.0360   46.7000   30.6040 O.3    14  THR14      -0.2208
     40  CG2       24.6620   48.5160   29.9280 C.3    14  THR14       0.0379
     41  N         26.9360   48.9520   26.8420 N.am   15  LEU15      -0.1977
     42  CA        26.7940   50.0020   25.8490 C.3    15  LEU15       0.1596
     43  C         26.3690   49.4050   24.5000 C.2    15  LEU15       0.2287
     44  O         25.5180   49.9810   23.8390 O.2    15  LEU15      -0.2864
     45  CB        28.0690   50.8170   25.6910 C.3    15  LEU15       0.0297
     46  CG        27.8010   52.0700   24.8360 C.3    15  LEU15       0.0022
     47  CD1       26.6100   52.8040   25.3810 C.3    15  LEU15       0.0001
     48  CD2       29.0070   53.0100   24.8130 C.3    15  LEU15       0.0001
     49  N         23.5320   56.5730   22.7780 N.3    25  TYR25      -0.1227
     50  CA        24.5700   56.4550   23.7850 C.3    25  TYR25       0.1736
     51  C         23.8780   56.7020   25.1200 C.2    25  TYR25       0.2595
     52  O         22.8510   57.3720   25.1670 O.2    25  TYR25      -0.2718
     53  CB        25.6510   57.5220   23.6020 C.3    25  TYR25       0.0548
     54  CG        26.5900   57.6110   24.7930 C.ar   25  TYR25      -0.0200
     55  CD1       27.6660   56.7420   24.9150 C.ar   25  TYR25      -0.0009
     56  CD2       26.3680   58.5350   25.8270 C.ar   25  TYR25      -0.0009
     57  CE1       28.5040   56.7750   26.0270 C.ar   25  TYR25       0.0417
     58  CE2       27.1970   58.5800   26.9510 C.ar   25  TYR25       0.0417
     59  CZ        28.2640   57.6870   27.0410 C.ar   25  TYR25       0.1957
     60  OH        29.0690   57.6660   28.1550 O.3    25  TYR25      -0.2866
     61  N         24.4370   56.1380   26.1860 N.am   26  ARG26      -0.1980
     62  CA        23.9430   56.3200   27.5570 C.3    26  ARG26       0.1597
     63  C         25.0940   56.0360   28.4920 C.2    26  ARG26       0.2287
     64  O         25.8930   55.1500   28.2420 O.2    26  ARG26      -0.2864
     65  CB        22.8320   55.3330   27.9190 C.3    26  ARG26       0.0334
     66  CG        21.5430   55.4800   27.1700 C.3    26  ARG26       0.0492
     67  CD        20.6020   56.4980   27.8040 C.3    26  ARG26       0.2205
     68  NE        19.2200   56.2830   27.3700 N.pl3  26  ARG26      -0.0865
     69  CZ        18.8110   56.3250   26.1020 C.cat  26  ARG26       0.5346
     70  NH1       19.6770   56.5830   25.1290 N.pl3  26  ARG26       0.1354
     71  NH2       17.5420   56.0690   25.7960 N.pl3  26  ARG26       0.1354
     72  N         26.8720   54.5340   31.7100 N.3    28  THR28      -0.1203
     73  CA        26.6910   53.2650   32.3840 C.3    28  THR28       0.1994
     74  C         27.6610   53.1310   33.5590 C.2    28  THR28       0.2618
     75  O         28.6410   53.8470   33.6600 O.2    28  THR28      -0.2717
     76  CB        26.9730   52.0830   31.3910 C.3    28  THR28       0.1784
     77  OG1       28.2750   52.2450   30.8180 O.3    28  THR28      -0.2211
     78  CG2       25.9730   52.0590   30.2720 C.3    28  THR28       0.0376
     79  N         27.3840   52.1870   34.4390 N.am   29  GLN29      -0.1965
     80  CA        28.2580   51.8940   35.5670 C.3    29  GLN29       0.1733
     81  C         28.4100   50.3750   35.5310 C.2    29  GLN29       0.2617
     82  O         27.6540   49.6740   34.8440 O.2    29  GLN29      -0.2715
     83  CB        27.5900   52.3010   36.8830 C.3    29  GLN29       0.0408
     84  CG        27.2400   53.8020   37.0040 C.3    29  GLN29       0.0908
     85  CD        28.4500   54.7360   37.0760 C.2    29  GLN29       0.2608
     86  OE1       28.2980   55.9410   37.0290 O.2    29  GLN29      -0.2717
     87  NE2       29.6490   54.1760   37.1930 N.am   29  GLN29      -0.0878
     88  N         29.3770   49.8560   36.2660 N.am   30  THR30      -0.1937
     89  CA        29.5540   48.4220   36.3470 C.3    30  THR30       0.2028
     90  C         28.2180   47.7480   36.6920 C.2    30  THR30       0.2642
     91  O         27.5380   48.1330   37.6530 O.2    30  THR30      -0.2714
     92  CB        30.5930   48.0870   37.4200 C.3    30  THR30       0.1808
     93  OG1       31.8260   48.7070   37.0550 O.3    30  THR30      -0.2208
     94  CG2       30.8260   46.5900   37.5380 C.3    30  THR30       0.0379
     95  N         27.8600   46.7410   35.8950 N.am   31  SER31      -0.1949
     96  CA        26.6150   45.9930   36.0580 C.3    31  SER31       0.1924
     97  C         26.6750   44.9860   37.1870 C.2    31  SER31       0.2314
     98  O         27.6700   44.2820   37.3200 O.2    31  SER31      -0.2863
     99  CB        26.2890   45.2410   34.7610 C.3    31  SER31       0.2116
    100  OG        25.9990   46.1440   33.7150 O.3    31  SER31      -0.2180
    101  N         26.6710   40.4950   33.5180 N.3    55  PRO55      -0.2102
    102  CA        27.7540   41.1780   34.2280 C.3    55  PRO55       0.1504
    103  C         29.1070   40.4870   34.0180 C.2    55  PRO55       0.2576
    104  O         29.1980   39.2660   34.0620 O.2    55  PRO55      -0.2718
    105  CB        27.3170   41.0960   35.6900 C.3    55  PRO55       0.0282
    106  CG        25.8650   40.9180   35.6380 C.3    55  PRO55       0.0208
    107  CD        25.6590   40.0010   34.4630 C.3    55  PRO55       0.0893
    108  N         30.1620   41.2640   33.8210 N.am   56  GLY56      -0.1943
    109  CA        31.4610   40.6630   33.6310 C.3    56  GLY56       0.2014
    110  C         32.2570   40.4280   34.9050 C.2    56  GLY56       0.2638
    111  O         33.3060   39.7660   34.8790 O.2    56  GLY56      -0.2714
    112  N         31.7790   40.9580   36.0250 N.am   57  HIS57      -0.1973
    113  CA        32.5120   40.7680   37.2600 C.3    57  HIS57       0.1656
    114  C         32.7620   39.2740   37.5520 C.2    57  HIS57       0.2291
    115  O         31.8790   38.4420   37.3800 O.2    57  HIS57      -0.2864
    116  CB        31.7870   41.4350   38.4300 C.3    57  HIS57       0.0771
    117  CG        32.6950   41.7450   39.5750 C.ar   57  HIS57       0.0820
    118  ND1       32.7700   40.9550   40.7030 N.ar   57  HIS57      -0.2267
    119  CD2       33.6740   42.6750   39.7030 C.ar   57  HIS57       0.1154
    120  CE1       33.7590   41.3770   41.4720 C.ar   57  HIS57       0.1986
    121  NE2       34.3260   42.4190   40.8870 N.ar   57  HIS57      -0.2212
    122  N         35.4120   44.9900   20.1980 N.3   116  ASN116     -0.1225
    123  CA        34.8430   46.3110   20.4310 C.3   116  ASN116      0.1785
    124  C         35.8450   47.4310   20.7340 C.2   116  ASN116      0.2597
    125  O         37.0460   47.1860   20.9180 O.2   116  ASN116     -0.2718
    126  CB        33.7990   46.1510   21.5440 C.3   116  ASN116      0.1169
    127  CG        32.9780   47.3870   21.7720 C.2   116  ASN116      0.2627
    128  OD1       32.4640   47.9620   20.7780 O.2   116  ASN116     -0.2716
    129  ND2       32.8330   47.7620   22.9640 N.am  116  ASN116     -0.0877
    130  N         35.3330   48.6600   20.7750 N.am  117  LYS117     -0.1980
    131  CA        36.1410   49.8560   21.0260 C.3   117  LYS117      0.1596
    132  C         37.1420   50.1710   19.8990 C.2   117  LYS117      0.2287
    133  O         38.2190   50.7390   20.1480 O.2   117  LYS117     -0.2864
    134  CB        36.8800   49.7340   22.3650 C.3   117  LYS117      0.0298
    135  CG        35.9350   49.5320   23.5700 C.3   117  LYS117      0.0038
    136  CD        36.4720   50.1180   24.8920 C.3   117  LYS117      0.0206
    137  CE        35.5710   49.6640   26.0240 C.3   117  LYS117      0.1093
    138  NZ        36.2310   49.7600   27.3550 N.3   117  LYS117     -0.1314
    139  N         36.9020   52.3770   17.6670 N.3   119  ASP119     -0.1225
    140  CA        37.0010   53.8250   17.5090 C.3   119  ASP119      0.1805
    141  C         38.2330   54.4100   18.2210 C.2   119  ASP119      0.2597
    142  O         38.6350   55.5380   17.9420 O.2   119  ASP119     -0.2718
    143  CB        35.7540   54.5030   18.0690 C.3   119  ASP119      0.1424
    144  CG        35.5490   54.2030   19.5550 C.2   119  ASP119      0.3668
    145  OD1       35.1600   53.0670   19.9020 O.co2 119  ASP119     -0.2456
    146  OD2       35.7980   55.0970   20.3800 O.co2 119  ASP119     -0.2456
    147  N         38.8200   53.6660   19.1540 N.am  120  ILE120     -0.1980
    148  CA        40.0060   54.1540   19.8580 C.3   120  ILE120      0.1595
    149  C         41.2180   53.8220   18.9940 C.2   120  ILE120      0.2287
    150  O         41.3330   52.7120   18.4700 O.2   120  ILE120     -0.2864
    151  CB        40.1240   53.5010   21.2560 C.3   120  ILE120      0.0276
    152  CG1       38.9660   53.9830   22.1430 C.3   120  ILE120      0.0022
    153  CG2       41.4540   53.8520   21.9030 C.3   120  ILE120      0.0022
    154  CD1       38.8780   53.2560   23.4600 C.3   120  ILE120      0.0001
    155  N         32.2140   49.2460   17.3230 N.3   171  SER171     -0.1202
    156  CA        32.3910   50.3700   18.2200 C.3   171  SER171      0.2020
    157  C         31.0220   50.7810   18.7410 C.2   171  SER171      0.2619
    158  O         30.0900   50.9630   17.9660 O.2   171  SER171     -0.2717
    159  CB        33.0280   51.5340   17.4880 C.3   171  SER171      0.2103
    160  OG        33.1820   52.6380   18.3660 O.3   171  SER171     -0.2182
    161  N         30.8970   50.9080   20.0580 N.am  172  ALA172     -0.1965
    162  CA        29.6370   51.3010   20.6580 C.3   172  ALA172      0.1728
    163  C         29.5210   52.8270   20.7000 C.2   172  ALA172      0.2616
    164  O         28.4540   53.3720   20.9570 O.2   172  ALA172     -0.2715
    165  CB        29.5280   50.7180   22.0650 C.3   172  ALA172      0.0334
    166  N         30.6290   53.5120   20.4560 N.am  173  LYS173     -0.1977
    167  CA        30.6400   54.9680   20.4560 C.3   173  LYS173      0.1596
    168  C         30.9510   55.4980   19.0570 C.2   173  LYS173      0.2287
    169  O         32.1010   55.8250   18.7490 O.2   173  LYS173     -0.2864
    170  CB        31.6830   55.4950   21.4370 C.3   173  LYS173      0.0298
    171  CG        31.2260   55.5970   22.8870 C.3   173  LYS173      0.0038
    172  CD        32.2570   56.3620   23.7170 C.3   173  LYS173      0.0206
    173  CE        31.8500   56.4840   25.1620 C.3   173  LYS173      0.1093
    174  NZ        32.8580   57.2500   25.9330 N.3   173  LYS173     -0.1314
@<TRIPOS>BOND
     1   155   156    1
     2   159   156    1
     3   159   160    1
     4   140   139    1
     5   140   143    1
     6   140   141    1
     7   142   141    2
     8   158   157    2
     9   143   144    1
    10   156   157    1
    11   141   147   am
    12   150   149    2
    13   157   161   am
    14   169   168    2
    15   149   148    1
    16   168   167    1
    17   147   148    1
    18   144   145   ar
    19   144   146   ar
    20   148   151    1
    21   132   133    2
    22   132   131    1
    23   161   162    1
    24   122   123    1
    25   123   124    1
    26   123   126    1
    27   167   166    1
    28   167   170    1
    29   166   163   am
    30   162   163    1
    31   162   165    1
    32   163   164    2
    33   124   130   am
    34   124   125    2
    35   130   131    1
    36   128   127    2
    37   131   134    1
    38   151   153    1
    39   151   152    1
    40   170   171    1
    41   126   127    1
    42   127   129   am
    43   152   154    1
    44   134   135    1
    45    49    50    1
    46   171   172    1
    47   135   136    1
    48    53    50    1
    49    53    54    1
    50   172   173    1
    51    50    51    1
    52    44    43    2
    53    43    42    1
    54    54    55   ar
    55    54    56   ar
    56    48    46    1
    57    46    47    1
    58    46    45    1
    59   136   137    1
    60    55    57   ar
    61    51    52    2
    62    51    61   am
    63    70    69    1
    64   173   174    1
    65    24    23    2
    66    18    17    2
    67    45    42    1
    68    71    69    1
    69    56    58   ar
    70    42    41    1
    71   137   138    1
    72    57    59   ar
    73    69    68    2
    74    28    27    2
    75    61    62    1
    76    23    22    1
    77    23    25   am
    78    22    21    1
    79    17    21   am
    80    17    16    1
    81    37    36    2
    82    41    36   am
    83    26    27    1
    84    26    25    1
    85    26    29    1
    86    58    59   ar
    87    27    34   am
    88    59    60    1
    89    66    67    1
    90    66    65    1
    91    36    35    1
    92    19    16    1
    93    19    20    1
    94    68    67    1
    95    16    15    1
    96    62    65    1
    97    62    63    1
    98    30    29    1
    99    30    31    1
   100    34    35    1
   101    64    63    2
   102    35    38    1
   103    10     9    2
   104    31    32    1
   105    15     9   am
   106     9     8    1
   107    38    40    1
   108    38    39    1
   109    32    33    1
   110    78    76    1
   111     8    11    1
   112     8     7    1
   113    77    76    1
   114    11    12    1
   115    76    73    1
   116     4     3    2
   117     7     3   am
   118    72    73    1
   119     3     2    1
   120    73    74    1
   121     1     2    1
   122    13    12   ar
   123    12    14   ar
   124     2     5    1
   125   101   102    1
   126   101   107    1
   127    74    75    2
   128    74    79   am
   129   109   108    1
   130   109   110    1
   131   100    99    1
   132   108   103   am
   133   103   104    2
   134   103   102    1
   135   102   105    1
   136     5     6    1
   137    79    80    1
   138   107   106    1
   139    99    96    1
   140    82    81    2
   141   111   110    2
   142   110   112   am
   143    81    80    1
   144    81    88   am
   145    80    83    1
   146   106   105    1
   147    95    96    1
   148    95    90   am
   149   112   113    1
   150    96    97    1
   151    88    89    1
   152    89    90    1
   153    89    92    1
   154    90    91    2
   155    83    84    1
   156    84    85    1
   157    86    85    2
   158    93    92    1
   159    85    87   am
   160    97    98    2
   161   113   114    1
   162   113   116    1
   163   115   114    2
   164    92    94    1
   165   116   117    1
   166   117   119   ar
   167   117   118   ar
   168   119   121   ar
   169   118   120   ar
   170   121   120   ar
