@<TRIPOS>MOLECULE
tmp/2fh6A00.pdb
 102 102 0 0 0
SMALL
GASTEIGER

@<TRIPOS>ATOM
      1  N         19.2620   36.9540   85.0770 N.3   393  ASN393     -0.1225
      2  CA        19.5900   36.0990   86.2120 C.3   393  ASN393      0.1785
      3  C         20.2960   34.8560   85.6910 C.2   393  ASN393      0.2597
      4  O         19.9570   34.3460   84.6190 O.2   393  ASN393     -0.2718
      5  CB        18.3460   35.6810   87.0010 C.3   393  ASN393      0.1169
      6  CG        18.6890   35.2360   88.4110 C.2   393  ASN393      0.2627
      7  OD1       19.3570   34.2160   88.6130 O.2   393  ASN393     -0.2716
      8  ND2       18.2560   36.0150   89.3960 N.am  393  ASN393     -0.0877
      9  N         21.2960   34.3780   86.4260 N.am  394  TRP394     -0.1976
     10  CA        21.9940   33.1660   86.0060 C.3   394  TRP394      0.1640
     11  C         20.9800   32.0290   85.9180 C.2   394  TRP394      0.2290
     12  O         21.0690   31.1680   85.0360 O.2   394  TRP394     -0.2864
     13  CB        23.0820   32.7780   87.0040 C.3   394  TRP394      0.0576
     14  CG        24.3210   33.6000   86.9240 C.ar  394  TRP394      0.0006
     15  CD1       24.6940   34.4450   85.9150 C.ar  394  TRP394      0.0946
     16  CD2       25.3700   33.6420   87.8940 C.ar  394  TRP394      0.0152
     17  NE1       25.9130   35.0150   86.2030 N.ar  394  TRP394     -0.2442
     18  CE2       26.3500   34.5390   87.4130 C.ar  394  TRP394      0.0810
     19  CE3       25.5750   33.0090   89.1310 C.ar  394  TRP394      0.0012
     20  CZ2       27.5210   34.8210   88.1240 C.ar  394  TRP394      0.0191
     21  CZ3       26.7380   33.2910   89.8390 C.ar  394  TRP394      0.0001
     22  CH2       27.6970   34.1900   89.3310 C.ar  394  TRP394      0.0015
     23  N         20.0730   29.8070   88.6900 N.3   396  TYR396     -0.1227
     24  CA        20.2710   28.6400   89.5500 C.3   396  TYR396      0.1736
     25  C         19.1260   28.6040   90.5600 C.2   396  TYR396      0.2595
     26  O         19.3320   28.4750   91.7660 O.2   396  TYR396     -0.2718
     27  CB        21.6290   28.7320   90.2460 C.3   396  TYR396      0.0548
     28  CG        22.7770   28.5460   89.2840 C.ar  396  TYR396     -0.0200
     29  CD1       23.2190   27.2710   88.9320 C.ar  396  TYR396     -0.0009
     30  CD2       23.3820   29.6440   88.6730 C.ar  396  TYR396     -0.0009
     31  CE1       24.2340   27.0910   87.9940 C.ar  396  TYR396      0.0417
     32  CE2       24.3960   29.4780   87.7350 C.ar  396  TYR396      0.0417
     33  CZ        24.8180   28.2020   87.3980 C.ar  396  TYR396      0.1957
     34  OH        25.8190   28.0430   86.4690 O.3   396  TYR396     -0.2866
     35  N         17.9100   28.7100   90.0290 N.am  397  ASP397     -0.1974
     36  CA        16.6840   28.7480   90.8180 C.3   397  ASP397      0.1709
     37  C         15.6390   27.8720   90.1370 C.2   397  ASP397      0.2293
     38  O         14.7460   28.3730   89.4560 O.2   397  ASP397     -0.2864
     39  CB        16.1890   30.1930   90.8700 C.3   397  ASP397      0.1436
     40  CG        17.2620   31.1490   91.3400 C.2   397  ASP397      0.3671
     41  OD1       17.6770   32.0370   90.5590 O.co2 397  ASP397     -0.2456
     42  OD2       17.6970   30.9980   92.5000 O.co2 397  ASP397     -0.2456
     43  N         18.8800   21.6560   94.8540 N.3   444  HIS444     -0.1241
     44  CA        17.9260   22.4600   95.6050 C.3   444  HIS444      0.1621
     45  C         16.7700   22.9130   94.7270 C.2   444  HIS444      0.2264
     46  O         16.8290   22.8130   93.5000 O.2   444  HIS444     -0.2867
     47  CB        18.6210   23.6870   96.2360 C.3   444  HIS444      0.0745
     48  CG        19.0160   24.7540   95.2560 C.ar  444  HIS444      0.0817
     49  ND1       18.1840   25.7980   94.9100 N.ar  444  HIS444     -0.2268
     50  CD2       20.1700   24.9570   94.5760 C.ar  444  HIS444      0.1154
     51  CE1       18.8100   26.5980   94.0650 C.ar  444  HIS444      0.1986
     52  NE2       20.0170   26.1110   93.8460 N.ar  444  HIS444     -0.2212
     53  N         22.0370   27.3590   99.5070 N.3   480  CYS480     -0.1221
     54  CA        21.7180   28.7790   99.3570 C.3   480  CYS480      0.1808
     55  C         20.2570   28.9570   99.6280 C.2   480  CYS480      0.2601
     56  O         19.8070   29.9080  100.2720 O.2   480  CYS480     -0.2717
     57  CB        21.8770   29.2600   97.9100 C.3   480  CYS480      0.0970
     58  SG        20.8170   28.4380   96.6320 S.3   480  CYS480     -0.0800
     59  N         19.5290   27.9860   99.1130 N.am  481  CYS481     -0.1970
     60  CA        18.1010   28.0430   99.0890 C.3   481  CYS481      0.1712
     61  C         17.3420   26.9080   99.7900 C.2   481  CYS481      0.2296
     62  O         17.4590   26.7440  101.0010 O.2   481  CYS481     -0.2864
     63  CB        17.7880   28.1500   97.6040 C.3   481  CYS481      0.0983
     64  SG        18.9440   29.2720   96.6840 S.3   481  CYS481     -0.0798
     65  N         31.7290   31.4790   85.6210 N.3   670  HIS670     -0.1226
     66  CA        30.6950   32.4750   85.8780 C.3   670  HIS670      0.1752
     67  C         30.7310   33.0140   87.3080 C.2   670  HIS670      0.2596
     68  O         30.5170   34.2090   87.5200 O.2   670  HIS670     -0.2718
     69  CB        29.2990   31.9230   85.5560 C.3   670  HIS670      0.0759
     70  CG        28.7930   30.9240   86.5480 C.ar  670  HIS670      0.0818
     71  ND1       29.1080   29.5840   86.4850 N.ar  670  HIS670     -0.2268
     72  CD2       28.0010   31.0750   87.6350 C.ar  670  HIS670      0.1154
     73  CE1       28.5300   28.9520   87.4920 C.ar  670  HIS670      0.1986
     74  NE2       27.8530   29.8340   88.2050 N.ar  670  HIS670     -0.2212
     75  N         31.0070   32.1480   88.2840 N.am  671  ASP671     -0.1974
     76  CA        31.0640   32.5900   89.6760 C.3   671  ASP671      0.1709
     77  C         32.4510   33.0710   90.0920 C.2   671  ASP671      0.2293
     78  O         33.4730   32.5670   89.6120 O.2   671  ASP671     -0.2864
     79  CB        30.5550   31.5030   90.6410 C.3   671  ASP671      0.1436
     80  CG        31.1940   30.1480   90.4180 C.2   671  ASP671      0.3671
     81  OD1       31.0990   29.3100   91.3410 O.co2 671  ASP671     -0.2456
     82  OD2       31.7710   29.9050   89.3410 O.co2 671  ASP671     -0.2456
     83  N         30.1370   38.2210   92.4930 N.3   727  ASP727     -0.1239
     84  CA        28.9850   37.3300   92.3250 C.3   727  ASP727      0.1674
     85  C         27.9380   38.1030   91.5260 C.2   727  ASP727      0.2266
     86  O         27.0930   38.7930   92.0990 O.2   727  ASP727     -0.2867
     87  CB        28.4460   36.9650   93.7130 C.3   727  ASP727      0.1410
     88  CG        27.2280   36.0690   93.6590 C.2   727  ASP727      0.3668
     89  OD1       26.5300   35.9880   94.6920 O.co2 727  ASP727     -0.2456
     90  OD2       26.9740   35.4450   92.6060 O.co2 727  ASP727     -0.2456
     91  N         25.3310   37.0560   89.5700 N.3   729  TYR729     -0.1241
     92  CA        24.0860   36.3610   89.2240 C.3   729  TYR729      0.1605
     93  C         22.8570   37.2270   88.9690 C.2   729  TYR729      0.2264
     94  O         21.9800   36.8400   88.1970 O.2   729  TYR729     -0.2867
     95  CB        23.7220   35.3340   90.3050 C.3   729  TYR729      0.0534
     96  CG        23.0380   35.9200   91.5240 C.ar  729  TYR729     -0.0201
     97  CD1       23.7420   36.7080   92.4350 C.ar  729  TYR729     -0.0009
     98  CD2       21.6820   35.6880   91.7640 C.ar  729  TYR729     -0.0009
     99  CE1       23.1120   37.2500   93.5600 C.ar  729  TYR729      0.0417
    100  CE2       21.0400   36.2250   92.8830 C.ar  729  TYR729      0.0417
    101  CZ        21.7620   37.0040   93.7760 C.ar  729  TYR729      0.1957
    102  OH        21.1380   37.5270   94.8850 O.3   729  TYR729     -0.2866
@<TRIPOS>BOND
     1     4     3    2
     2    12    11    2
     3     1     2    1
     4    69    66    1
     5    69    70    1
     6    65    66    1
     7     3     2    1
     8     3     9   am
     9    66    67    1
    10    15    17   ar
    11    15    14   ar
    12    11    10    1
    13    10     9    1
    14    10    13    1
    15    17    18   ar
    16     2     5    1
    17    34    33    1
    18    71    70   ar
    19    71    73   ar
    20    70    72   ar
    21    14    13    1
    22    14    16   ar
    23     5     6    1
    24    67    68    2
    25    67    75   am
    26    33    32   ar
    27    33    31   ar
    28    18    16   ar
    29    18    20   ar
    30    73    74   ar
    31    72    74   ar
    32    32    30   ar
    33    16    19   ar
    34    31    29   ar
    35    20    22   ar
    36    94    93    2
    37    75    76    1
    38     6     7    2
    39     6     8   am
    40    30    28   ar
    41    23    24    1
    42    29    28   ar
    43    93    92    1
    44    19    21   ar
    45    92    91    1
    46    92    95    1
    47    28    27    1
    48    22    21   ar
    49    82    80   ar
    50    38    37    2
    51    24    27    1
    52    24    25    1
    53    78    77    2
    54    76    77    1
    55    76    79    1
    56    35    25   am
    57    35    36    1
    58    37    36    1
    59    95    96    1
    60    80    79    1
    61    80    81   ar
    62    41    40   ar
    63    25    26    2
    64    36    39    1
    65    39    40    1
    66    40    42   ar
    67    96    98   ar
    68    96    97   ar
    69    85    86    2
    70    85    84    1
    71    98   100   ar
    72    84    83    1
    73    84    87    1
    74    97    99   ar
    75    90    88   ar
    76   100   101   ar
    77    46    45    2
    78    99   101   ar
    79    88    87    1
    80    88    89   ar
    81   101   102    1
    82    52    51   ar
    83    52    50   ar
    84    51    49   ar
    85    50    48   ar
    86    45    44    1
    87    43    44    1
    88    49    48   ar
    89    48    47    1
    90    44    47    1
    91    58    64    1
    92    58    57    1
    93    64    63    1
    94    63    60    1
    95    57    54    1
    96    60    59    1
    97    60    61    1
    98    59    55   am
    99    54    53    1
   100    54    55    1
   101    55    56    2
   102    61    62    2
