@<TRIPOS>MOLECULE
tmp/2fh8A00.pdb
 160 155 0 0 0
SMALL
GASTEIGER

@<TRIPOS>ATOM
      1  N         12.4040   59.3520   88.7220 N.3   323  THR323     -0.1218
      2  CA        12.7660   60.7510   88.9480 C.3   323  THR323      0.1862
      3  C         12.7060   61.8010   87.8420 C.2   323  THR323      0.2287
      4  O         13.3540   62.8460   87.9390 O.2   323  THR323     -0.2866
      5  CB        14.1570   60.8220   89.5940 C.3   323  THR323      0.1770
      6  OG1       15.0720   60.0090   88.8470 O.3   323  THR323     -0.2211
      7  CG2       14.0950   60.3190   91.0240 C.3   323  THR323      0.0375
      8  N         18.3040   63.3360   84.8750 N.3   395  ASN395     -0.1225
      9  CA        18.5950   62.4750   86.0160 C.3   395  ASN395      0.1785
     10  C         19.3270   61.2330   85.5150 C.2   395  ASN395      0.2597
     11  O         18.9790   60.6910   84.4650 O.2   395  ASN395     -0.2718
     12  CB        17.3100   62.0680   86.7410 C.3   395  ASN395      0.1169
     13  CG        17.5730   61.6120   88.1610 C.2   395  ASN395      0.2627
     14  OD1       18.1530   60.5540   88.3900 O.2   395  ASN395     -0.2716
     15  ND2       17.1660   62.4260   89.1280 N.am  395  ASN395     -0.0877
     16  N         20.3540   60.7960   86.2410 N.am  396  TRP396     -0.1976
     17  CA        21.0880   59.5940   85.8370 C.3   396  TRP396      0.1640
     18  C         20.0970   58.4420   85.7400 C.2   396  TRP396      0.2290
     19  O         20.2340   57.5600   84.8870 O.2   396  TRP396     -0.2864
     20  CB        22.1650   59.2190   86.8520 C.3   396  TRP396      0.0576
     21  CG        23.4200   60.0170   86.7740 C.ar  396  TRP396      0.0006
     22  CD1       23.7830   60.8950   85.7930 C.ar  396  TRP396      0.0946
     23  CD2       24.4840   60.0160   87.7300 C.ar  396  TRP396      0.0152
     24  NE1       25.0080   61.4450   86.0840 N.ar  396  TRP396     -0.2442
     25  CE2       25.4590   60.9240   87.2690 C.ar  396  TRP396      0.0810
     26  CE3       24.7050   59.3370   88.9370 C.ar  396  TRP396      0.0012
     27  CZ2       26.6410   61.1740   87.9720 C.ar  396  TRP396      0.0191
     28  CZ3       25.8800   59.5860   89.6360 C.ar  396  TRP396      0.0001
     29  CH2       26.8340   60.5000   89.1500 C.ar  396  TRP396      0.0015
     30  N         19.1350   56.2390   88.4900 N.3   398  TYR398     -0.1227
     31  CA        19.3490   55.0760   89.3520 C.3   398  TYR398      0.1736
     32  C         18.2070   55.0060   90.3570 C.2   398  TYR398      0.2595
     33  O         18.4220   54.9000   91.5650 O.2   398  TYR398     -0.2718
     34  CB        20.7020   55.1830   90.0640 C.3   398  TYR398      0.0548
     35  CG        21.8730   54.9680   89.1280 C.ar  398  TYR398     -0.0200
     36  CD1       22.2290   53.6860   88.7130 C.ar  398  TYR398     -0.0009
     37  CD2       22.5800   56.0490   88.6010 C.ar  398  TYR398     -0.0009
     38  CE1       23.2500   53.4800   87.7960 C.ar  398  TYR398      0.0417
     39  CE2       23.6070   55.8550   87.6770 C.ar  398  TYR398      0.0417
     40  CZ        23.9340   54.5710   87.2790 C.ar  398  TYR398      0.1957
     41  OH        24.9310   54.3750   86.3530 O.3   398  TYR398     -0.2866
     42  N         16.9860   55.0580   89.8360 N.am  399  ASP399     -0.1974
     43  CA        15.7870   55.0350   90.6640 C.3   399  ASP399      0.1709
     44  C         14.6870   54.2140   89.9910 C.2   399  ASP399      0.2293
     45  O         13.7580   54.7550   89.3880 O.2   399  ASP399     -0.2864
     46  CB        15.3160   56.4660   90.9040 C.3   399  ASP399      0.1436
     47  CG        15.0130   57.1930   89.6200 C.2   399  ASP399      0.3671
     48  OD1       15.8340   57.1220   88.6820 O.co2 399  ASP399     -0.2456
     49  OD2       13.9530   57.8380   89.5490 O.co2 399  ASP399     -0.2456
     50  N         17.9300   48.0360   94.7130 N.3   446  HIS446     -0.1241
     51  CA        16.9710   48.8470   95.4560 C.3   446  HIS446      0.1621
     52  C         15.8030   49.2630   94.5840 C.2   446  HIS446      0.2264
     53  O         15.8360   49.0980   93.3620 O.2   446  HIS446     -0.2867
     54  CB        17.6490   50.0980   96.0550 C.3   446  HIS446      0.0745
     55  CG        18.0760   51.1230   95.0450 C.ar  446  HIS446      0.0817
     56  ND1       17.2480   52.1370   94.6110 N.ar  446  HIS446     -0.2268
     57  CD2       19.2600   51.3150   94.4130 C.ar  446  HIS446      0.1154
     58  CE1       17.9030   52.9090   93.7620 C.ar  446  HIS446      0.1986
     59  NE2       19.1270   52.4320   93.6250 N.ar  446  HIS446     -0.2212
     60  N         20.9150   51.4940  102.8890 N.3   480  ALA480     -0.1231
     61  CA        22.3590   51.4910  102.6930 C.3   480  ALA480      0.1694
     62  C         22.7000   51.7390  101.2240 C.2   480  ALA480      0.2593
     63  O         23.7630   52.2770  100.9090 O.2   480  ALA480     -0.2718
     64  CB        22.9460   50.1600  103.1500 C.3   480  ALA480      0.0304
     65  N         21.8040   51.3460  100.3220 N.am  481  THR481     -0.1939
     66  CA        22.0470   51.5590   98.8940 C.3   481  THR481      0.2028
     67  C         21.9130   53.0420   98.5680 C.2   481  THR481      0.2642
     68  O         22.6020   53.5490   97.6830 O.2   481  THR481     -0.2714
     69  CB        21.0350   50.7930   98.0050 C.3   481  THR481      0.1808
     70  OG1       19.7080   51.2600   98.2780 O.3   481  THR481     -0.2208
     71  CG2       21.1050   49.2940   98.2760 C.3   481  THR481      0.0379
     72  N         21.0300   53.7190   99.3030 N.am  482  CYS482     -0.1953
     73  CA        20.7440   55.1440   99.1230 C.3   482  CYS482      0.1843
     74  C         19.2850   55.3590   99.3870 C.2   482  CYS482      0.2625
     75  O         18.8450   56.3180  100.0340 O.2   482  CYS482     -0.2714
     76  CB        20.9220   55.5820   97.6630 C.3   482  CYS482      0.0997
     77  SG        19.8760   54.7310   96.3910 S.3   482  CYS482     -0.0797
     78  N         18.5480   54.4090   98.8470 N.am  483  CYS483     -0.1968
     79  CA        17.1210   54.4650   98.8120 C.3   483  CYS483      0.1712
     80  C         16.3860   53.3260   99.5390 C.2   483  CYS483      0.2296
     81  O         16.5390   53.1650  100.7470 O.2   483  CYS483     -0.2864
     82  CB        16.8170   54.5330   97.3220 C.3   483  CYS483      0.0983
     83  SG        18.0150   55.5910   96.3750 S.3   483  CYS483     -0.0798
     84  N         25.5740   45.5720   83.5560 N.3   514  ARG514     -0.1245
     85  CA        26.4420   46.0710   84.6030 C.3   514  ARG514      0.1563
     86  C         25.5640   46.2610   85.8270 C.2   514  ARG514      0.2260
     87  O         24.6650   47.1000   85.8360 O.2   514  ARG514     -0.2867
     88  CB        27.0880   47.3910   84.1600 C.3   514  ARG514      0.0307
     89  CG        28.0170   48.0530   85.1790 C.3   514  ARG514      0.0489
     90  CD        27.2310   48.9700   86.1000 C.3   514  ARG514      0.2205
     91  NE        28.0760   49.9740   86.7360 N.pl3 514  ARG514     -0.0865
     92  CZ        27.6400   50.8680   87.6200 C.cat 514  ARG514      0.5346
     93  NH1       26.3590   50.8830   87.9790 N.pl3 514  ARG514      0.1354
     94  NH2       28.4830   51.7560   88.1390 N.pl3 514  ARG514      0.1354
     95  N         24.5610   47.5470   89.3440 N.3   516  ASP516     -0.1225
     96  CA        24.8360   48.6350   90.2740 C.3   516  ASP516      0.1805
     97  C         24.9020   47.9640   91.6460 C.2   516  ASP516      0.2597
     98  O         24.0930   47.0830   91.9390 O.2   516  ASP516     -0.2718
     99  CB        23.6830   49.6470   90.2410 C.3   516  ASP516      0.1424
    100  CG        23.9410   50.8690   91.1110 C.2   516  ASP516      0.3668
    101  OD1       24.9060   51.6060   90.8260 O.co2 516  ASP516     -0.2456
    102  OD2       23.1730   51.0940   92.0740 O.co2 516  ASP516     -0.2456
    103  N         25.8590   48.3730   92.4740 N.am  517  LEU517     -0.1979
    104  CA        26.0190   47.8040   93.8130 C.3   517  LEU517      0.1596
    105  C         25.7850   46.2930   93.8110 C.2   517  LEU517      0.2287
    106  O         24.9390   45.7820   94.5440 O.2   517  LEU517     -0.2864
    107  CB        25.0500   48.4840   94.7900 C.3   517  LEU517      0.0297
    108  CG        25.1700   50.0110   94.8640 C.3   517  LEU517      0.0022
    109  CD1       24.1840   50.5650   95.8770 C.3   517  LEU517      0.0001
    110  CD2       26.5970   50.3910   95.2360 C.3   517  LEU517      0.0001
    111  N         30.6960   48.2310   93.3860 N.3   546  GLY546     -0.1225
    112  CA        30.2110   48.4790   94.7340 C.3   546  GLY546      0.1811
    113  C         31.3780   48.5890   95.6950 C.2   546  GLY546      0.2280
    114  O         31.9820   49.6510   95.8360 O.2   546  GLY546     -0.2866
    115  N         31.3280   48.1450   99.1050 N.3   548  ASP548     -0.1239
    116  CA        31.0250   48.6250  100.4580 C.3   548  ASP548      0.1674
    117  C         29.7660   47.9710  101.0300 C.2   548  ASP548      0.2266
    118  O         29.1190   48.5290  101.9170 O.2   548  ASP548     -0.2867
    119  CB        30.8490   50.1520  100.4580 C.3   548  ASP548      0.1410
    120  CG        29.6290   50.6080   99.6640 C.2   548  ASP548      0.3668
    121  OD1       28.4850   50.2960  100.0730 O.co2 548  ASP548     -0.2456
    122  OD2       29.8170   51.2850   98.6280 O.co2 548  ASP548     -0.2456
    123  N         30.8420   57.8650   85.4690 N.3   672  HIS672     -0.1226
    124  CA        29.8100   58.8590   85.7530 C.3   672  HIS672      0.1752
    125  C         29.8440   59.3870   87.1910 C.2   672  HIS672      0.2596
    126  O         29.6540   60.5830   87.4230 O.2   672  HIS672     -0.2718
    127  CB        28.4130   58.3070   85.4180 C.3   672  HIS672      0.0759
    128  CG        27.9330   57.2400   86.3530 C.ar  672  HIS672      0.0818
    129  ND1       28.2880   55.9150   86.2200 N.ar  672  HIS672     -0.2268
    130  CD2       27.1480   57.3100   87.4540 C.ar  672  HIS672      0.1154
    131  CE1       27.7430   55.2150   87.2000 C.ar  672  HIS672      0.1986
    132  NE2       27.0460   56.0390   87.9620 N.ar  672  HIS672     -0.2212
    133  N         30.0840   58.5070   88.1550 N.am  673  ASP673     -0.1974
    134  CA        30.1420   58.9390   89.5450 C.3   673  ASP673      0.1709
    135  C         31.5420   59.4280   89.9200 C.2   673  ASP673      0.2293
    136  O         32.5490   58.9290   89.4100 O.2   673  ASP673     -0.2864
    137  CB        29.6770   57.8220   90.4880 C.3   673  ASP673      0.1436
    138  CG        30.3380   56.4870   90.2070 C.2   673  ASP673      0.3671
    139  OD1       30.2460   55.6070   91.0850 O.co2 673  ASP673     -0.2456
    140  OD2       30.9350   56.3000   89.1250 O.co2 673  ASP673     -0.2456
    141  N         29.2340   64.5640   92.2940 N.3   729  ASP729     -0.1239
    142  CA        28.0780   63.6780   92.1320 C.3   729  ASP729      0.1674
    143  C         27.0330   64.4650   91.3440 C.2   729  ASP729      0.2266
    144  O         26.1760   65.1370   91.9230 O.2   729  ASP729     -0.2867
    145  CB        27.5440   63.3100   93.5170 C.3   729  ASP729      0.1410
    146  CG        26.3380   62.3920   93.4670 C.2   729  ASP729      0.3668
    147  OD1       25.7390   62.1830   94.5390 O.co2 729  ASP729     -0.2456
    148  OD2       25.9920   61.8780   92.3810 O.co2 729  ASP729     -0.2456
    149  N         24.4430   63.4670   89.4050 N.3   731  TYR731     -0.1241
    150  CA        23.1980   62.7630   89.0740 C.3   731  TYR731      0.1605
    151  C         21.9520   63.6170   88.8300 C.2   731  TYR731      0.2264
    152  O         21.0290   63.1890   88.1280 O.2   731  TYR731     -0.2867
    153  CB        22.8520   61.7420   90.1650 C.3   731  TYR731      0.0534
    154  CG        22.1490   62.3340   91.3710 C.ar  731  TYR731     -0.0201
    155  CD1       22.8450   63.0960   92.3050 C.ar  731  TYR731     -0.0009
    156  CD2       20.7830   62.1320   91.5710 C.ar  731  TYR731     -0.0009
    157  CE1       22.2010   63.6440   93.4140 C.ar  731  TYR731      0.0417
    158  CE2       20.1250   62.6730   92.6750 C.ar  731  TYR731      0.0417
    159  CZ        20.8410   63.4250   93.5940 C.ar  731  TYR731      0.1957
    160  OH        20.2080   63.9310   94.7060 O.3   731  TYR731     -0.2866
@<TRIPOS>BOND
     1    84    85    1
     2    88    85    1
     3    88    89    1
     4    11    10    2
     5    85    86    1
     6     8     9    1
     7    19    18    2
     8    89    90    1
     9   127   124    1
    10   127   128    1
    11   123   124    1
    12    10     9    1
    13    10    16   am
    14    18    17    1
    15   124   125    1
    16    22    24   ar
    17    22    21   ar
    18    86    87    2
    19    17    16    1
    20    17    20    1
    21     9    12    1
    22    24    25   ar
    23    90    91    1
    24   129   128   ar
    25   129   131   ar
    26    41    40    1
    27   128   130   ar
    28    91    92    2
    29    12    13    1
    30    21    20    1
    31    21    23   ar
    32   125   126    2
    33   125   133   am
    34   131   132   ar
    35    25    23   ar
    36    25    27   ar
    37    40    39   ar
    38    40    38   ar
    39   130   132   ar
    40    92    93    1
    41    92    94    1
    42    39    37   ar
    43    23    26   ar
    44    38    36   ar
    45     3     4    2
    46     3     2    1
    47    27    29   ar
    48   152   151    2
    49   133   134    1
    50    13    14    2
    51    13    15   am
    52    30    31    1
    53    37    35   ar
    54    48    47   ar
    55    36    35   ar
    56     1     2    1
    57   151   150    1
    58     6     5    1
    59    26    28   ar
    60     2     5    1
    61   150   149    1
    62   150   153    1
    63   140   138   ar
    64    35    34    1
    65    29    28   ar
    66    95    96    1
    67    31    34    1
    68    31    32    1
    69    45    44    2
    70   136   135    2
    71   134   135    1
    72   134   137    1
    73    49    47   ar
    74     5     7    1
    75    47    46    1
    76    42    32   am
    77    42    43    1
    78    44    43    1
    79   153   154    1
    80   138   137    1
    81   138   139   ar
    82    99    96    1
    83    99   100    1
    84    96    97    1
    85    32    33    2
    86    43    46    1
    87   101   100   ar
    88   100   102   ar
    89   143   144    2
    90   143   142    1
    91   154   156   ar
    92   154   155   ar
    93   156   158   ar
    94    97    98    2
    95    97   103   am
    96   142   141    1
    97   142   145    1
    98   155   157   ar
    99   148   146   ar
   100   103   104    1
   101   158   159   ar
   102    53    52    2
   103   111   112    1
   104   157   159   ar
   105   146   145    1
   106   146   147   ar
   107   159   160    1
   108    59    58   ar
   109    59    57   ar
   110    58    56   ar
   111   105   104    1
   112   105   106    2
   113   104   107    1
   114    57    55   ar
   115    52    51    1
   116    56    55   ar
   117    50    51    1
   118   112   113    1
   119   107   108    1
   120   108   110    1
   121   108   109    1
   122    55    54    1
   123    51    54    1
   124   113   114    2
   125    83    77    1
   126    83    82    1
   127    77    76    1
   128    82    79    1
   129    76    73    1
   130    68    67    2
   131    69    71    1
   132    69    70    1
   133    69    66    1
   134    67    66    1
   135    67    72   am
   136   122   120   ar
   137    79    78    1
   138    79    80    1
   139    78    74   am
   140    66    65    1
   141   115   116    1
   142    73    72    1
   143    73    74    1
   144    74    75    2
   145    80    81    2
   146   120   121   ar
   147   120   119    1
   148    65    62   am
   149   116   119    1
   150   116   117    1
   151    63    62    2
   152   117   118    2
   153    62    61    1
   154    61    60    1
   155    61    64    1
