@<TRIPOS>MOLECULE
tmp/2fhhP00.pdb
 126 114 0 0 0
SMALL
GASTEIGER

@<TRIPOS>ATOM
      1  N         69.3840   18.8270  -34.6400 N.3     1  THR1       -0.1218
      2  CA        68.9940   19.4510  -33.3530 C.3     1  THR1        0.1862
      3  C         70.1100   19.4250  -32.3290 C.2     1  THR1        0.2287
      4  O         70.9510   18.5370  -32.3290 O.2     1  THR1       -0.2866
      5  CB        67.7680   18.7770  -32.8090 C.3     1  THR1        0.1770
      6  OG1       66.7460   18.9010  -33.8060 O.3     1  THR1       -0.2211
      7  CG2       67.3320   19.4530  -31.5350 C.3     1  THR1        0.0375
      8  N         66.2070   24.7080  -35.9730 N.3    19  ARG19      -0.1231
      9  CA        66.1650   23.9620  -37.2180 C.3    19  ARG19       0.1694
     10  C         65.2240   22.7850  -37.1020 C.2    19  ARG19       0.2593
     11  O         65.1720   22.1080  -36.0710 O.2    19  ARG19      -0.2718
     12  CB        67.5640   23.4380  -37.4930 C.3    19  ARG19       0.0321
     13  CG        67.7440   22.7180  -38.7790 C.3    19  ARG19       0.0489
     14  CD        68.0620   23.7000  -39.8450 C.3    19  ARG19       0.2205
     15  NE        69.3770   23.5100  -40.4250 N.pl3  19  ARG19      -0.0865
     16  CZ        69.9250   24.3930  -41.2500 C.cat  19  ARG19       0.5346
     17  NH1       69.2790   25.5070  -41.5490 N.pl3  19  ARG19       0.1354
     18  NH2       71.1180   24.1730  -41.7720 N.pl3  19  ARG19       0.1354
     19  N         64.4680   22.5410  -38.1570 N.am   20  SER20      -0.1938
     20  CA        63.6980   21.3040  -38.2550 C.3    20  SER20       0.2055
     21  C         63.9030   20.7860  -39.6420 C.2    20  SER20       0.2644
     22  O         63.6530   21.4880  -40.6210 O.2    20  SER20      -0.2714
     23  CB        62.2120   21.5230  -38.0000 C.3    20  SER20       0.2130
     24  OG        61.4340   20.6800  -38.8260 O.3    20  SER20      -0.2179
     25  N         64.3710   19.5560  -39.7250 N.am   21  THR21      -0.1936
     26  CA        64.7750   19.0390  -40.9970 C.3    21  THR21       0.2028
     27  C         64.0040   17.7490  -41.3300 C.2    21  THR21       0.2642
     28  O         63.3820   17.1310  -40.4680 O.2    21  THR21      -0.2714
     29  CB        66.3030   18.9580  -41.0360 C.3    21  THR21       0.1808
     30  OG1       66.7190   18.2980  -42.2260 O.3    21  THR21      -0.2208
     31  CG2       66.8470   18.2400  -39.8020 C.3    21  THR21       0.0379
     32  N         63.9850   17.3820  -42.6020 N.am   22  GLN22      -0.1976
     33  CA        63.2950   16.1850  -43.0270 C.3    22  GLN22       0.1601
     34  C         64.0330   15.6230  -44.1920 C.2    22  GLN22       0.2287
     35  O         63.8800   16.0790  -45.3110 O.2    22  GLN22      -0.2864
     36  CB        61.8980   16.5150  -43.4460 C.3    22  GLN22       0.0394
     37  CG        61.2220   15.3990  -44.1600 C.3    22  GLN22       0.0908
     38  CD        59.9100   15.8470  -44.6800 C.2    22  GLN22       0.2608
     39  OE1       59.7600   16.0560  -45.8820 O.2    22  GLN22      -0.2717
     40  NE2       58.9460   16.0570  -43.7750 N.am   22  GLN22      -0.0878
     41  N         63.0120   22.2110  -43.1850 N.3    27  SER27      -0.1217
     42  CA        61.5790   22.2360  -43.1750 C.3    27  SER27       0.1889
     43  C         61.0840   23.0610  -42.0030 C.2    27  SER27       0.2288
     44  O         59.8900   23.1190  -41.7370 O.2    27  SER27      -0.2866
     45  CB        61.0830   20.8160  -43.0130 C.3    27  SER27       0.2089
     46  OG        61.3070   20.3930  -41.6870 O.3    27  SER27      -0.2183
     47  N         61.6680   26.7460  -34.9460 N.3    31  VAL31      -0.1245
     48  CA        61.0410   25.8530  -33.9850 C.3    31  VAL31       0.1561
     49  C         61.4490   26.2770  -32.5800 C.2    31  VAL31       0.2260
     50  O         62.6090   26.6230  -32.3520 O.2    31  VAL31      -0.2867
     51  CB        61.4400   24.3750  -34.2280 C.3    31  VAL31       0.0252
     52  CG1       60.4790   23.4480  -33.5130 C.3    31  VAL31       0.0019
     53  CG2       61.4200   24.0540  -35.6880 C.3    31  VAL31       0.0019
     54  N         62.2550   24.8070  -29.3810 N.3    33  LYS33      -0.1245
     55  CA        62.5770   23.5020  -28.8110 C.3    33  LYS33       0.1561
     56  C         62.6820   23.4570  -27.2740 C.2    33  LYS33       0.2260
     57  O         62.7940   22.3850  -26.6810 O.2    33  LYS33      -0.2867
     58  CB        63.8370   22.9600  -29.4730 C.3    33  LYS33       0.0271
     59  CG        63.7280   22.9670  -30.9820 C.3    33  LYS33       0.0035
     60  CD        64.9130   22.2730  -31.6140 C.3    33  LYS33       0.0206
     61  CE        64.6930   22.0550  -33.1080 C.3    33  LYS33       0.1093
     62  NZ        65.9610   21.6530  -33.7990 N.3    33  LYS33      -0.1314
     63  N         63.5960   19.2240  -25.8310 N.3    45  ILE45      -0.1245
     64  CA        63.1660   17.9450  -26.4320 C.3    45  ILE45       0.1561
     65  C         63.7170   17.7440  -27.8270 C.2    45  ILE45       0.2260
     66  O         63.5380   18.6020  -28.6850 O.2    45  ILE45      -0.2867
     67  CB        61.6230   17.8490  -26.5610 C.3    45  ILE45       0.0252
     68  CG1       60.9640   19.2450  -26.6780 C.3    45  ILE45       0.0019
     69  CG2       61.0370   17.0840  -25.4050 C.3    45  ILE45       0.0019
     70  CD1       61.0900   19.9660  -28.0910 C.3    45  ILE45       0.0001
     71  N         64.5200   15.1110  -31.4200 N.3    47  GLY47      -0.1210
     72  CA        63.9800   14.0200  -32.2320 C.3    47  GLY47       0.1956
     73  C         62.6960   14.3320  -32.9770 C.2    47  GLY47       0.2613
     74  O         62.6000   15.3330  -33.6720 O.2    47  GLY47      -0.2717
     75  N         61.7130   13.4590  -32.8220 N.am   48  THR48      -0.1938
     76  CA        60.4900   13.5170  -33.5970 C.3    48  THR48       0.2028
     77  C         59.6180   14.6580  -33.1120 C.2    48  THR48       0.2642
     78  O         59.1470   14.6430  -31.9730 O.2    48  THR48      -0.2714
     79  CB        59.7480   12.1390  -33.5590 C.3    48  THR48       0.1808
     80  OG1       60.4790   11.1850  -34.3510 O.3    48  THR48      -0.2208
     81  CG2       58.3250   12.2520  -34.0790 C.3    48  THR48       0.0379
     82  N         59.4170   15.6360  -33.9900 N.am   49  ALA49      -0.1963
     83  CA        58.6710   16.8500  -33.6810 C.3    49  ALA49       0.1728
     84  C         57.3180   16.6070  -33.0430 C.2    49  ALA49       0.2616
     85  O         57.0400   17.1200  -31.9660 O.2    49  ALA49      -0.2715
     86  CB        58.5050   17.6790  -34.9150 C.3    49  ALA49       0.0334
     87  N         56.4700   15.8290  -33.7070 N.am   50  ALA50      -0.1977
     88  CA        55.1100   15.6330  -33.2010 C.3    50  ALA50       0.1597
     89  C         55.1370   15.2010  -31.7370 C.2    50  ALA50       0.2287
     90  O         54.3330   15.6820  -30.9350 O.2    50  ALA50      -0.2864
     91  CB        54.3390   14.6440  -34.0540 C.3    50  ALA50       0.0319
     92  N         57.9280   15.3940  -29.4680 N.3    52  ALA52      -0.1231
     93  CA        58.5910   16.4210  -28.6670 C.3    52  ALA52       0.1694
     94  C         57.6260   17.5150  -28.1910 C.2    52  ALA52       0.2591
     95  O         57.5970   17.8200  -27.0000 O.2    52  ALA52      -0.2718
     96  CB        59.7430   17.0010  -29.4380 C.3    52  ALA52       0.0304
     97  N         56.8390   18.0790  -29.1110 N.am   53  VAL53      -0.1980
     98  CA        55.8010   19.0770  -28.7920 C.3    53  VAL53       0.1595
     99  C         54.8380   18.5100  -27.7560 C.2    53  VAL53       0.2287
    100  O         54.5110   19.1510  -26.7570 O.2    53  VAL53      -0.2864
    101  CB        54.9780   19.4740  -30.0560 C.3    53  VAL53       0.0276
    102  CG1       53.7820   20.3680  -29.7000 C.3    53  VAL53       0.0022
    103  CG2       55.8650   20.1280  -31.0850 C.3    53  VAL53       0.0022
    104  N         59.7020    4.6010  -34.9060 N.3    97  GLY97      -0.1225
    105  CA        60.2190    5.7890  -35.5800 C.3    97  GLY97       0.1811
    106  C         60.0170    7.0070  -34.7070 C.2    97  GLY97       0.2280
    107  O         60.8840    7.8820  -34.6360 O.2    97  GLY97      -0.2866
    108  N         60.6430    8.4470  -32.1320 N.3    99  LEU99      -0.1245
    109  CA        61.6220    8.6730  -31.0550 C.3    99  LEU99       0.1561
    110  C         61.6850   10.1300  -30.6090 C.2    99  LEU99       0.2260
    111  O         61.7400   11.0260  -31.4430 O.2    99  LEU99      -0.2867
    112  CB        63.0310    8.2640  -31.5060 C.3    99  LEU99       0.0270
    113  CG        64.1020    8.6400  -30.4680 C.3    99  LEU99       0.0019
    114  CD1       64.0440    7.6990  -29.2800 C.3    99  LEU99       0.0001
    115  CD2       65.5000    8.6790  -31.0400 C.3    99  LEU99       0.0001
    116  N         71.0780   15.6770  -32.5500 N.3   141  SER141     -0.1217
    117  CA        72.0220   15.2900  -33.5870 C.3   141  SER141      0.1889
    118  C         73.3750   15.9630  -33.4640 C.2   141  SER141      0.2288
    119  O         74.3500   15.4770  -34.0090 O.2   141  SER141     -0.2866
    120  CB        71.4540   15.5590  -34.9650 C.3   141  SER141      0.2089
    121  OG        71.0120   16.8810  -35.0550 O.3   141  SER141     -0.2183
    122  N         72.1390   19.2820  -39.2580 N.3   180  ALA180     -0.1245
    123  CA        70.7540   19.1840  -38.8480 C.3   180  ALA180      0.1562
    124  C         70.4540   20.0810  -37.6770 C.2   180  ALA180      0.2260
    125  O         69.3350   20.0260  -37.1460 O.2   180  ALA180     -0.2867
    126  CB        70.4040   17.7690  -38.5020 C.3   180  ALA180      0.0290
@<TRIPOS>BOND
     1    39    38    2
     2    35    34    2
     3    38    37    1
     4    38    40   am
     5    34    33    1
     6    37    36    1
     7    36    33    1
     8    41    42    1
     9    42    45    1
    10    42    43    1
    11    33    32    1
    12    45    46    1
    13    32    27   am
    14    30    29    1
    15    43    44    2
    16    18    16    1
    17    17    16    1
    18    27    26    1
    19    27    28    2
    20    16    15    2
    21    29    26    1
    22    29    31    1
    23    26    25    1
    24    22    21    2
    25    15    14    1
    26    14    13    1
    27    25    21   am
    28    21    20    1
    29   122   123    1
    30   123   126    1
    31   123   124    1
    32    24    23    1
    33    13    12    1
    34    20    19    1
    35    20    23    1
    36    19    10   am
    37   124   125    2
    38    12     9    1
    39     9    10    1
    40     9     8    1
    41    10    11    2
    42    53    51    1
    43   105   104    1
    44   105   106    1
    45   121   120    1
    46   120   117    1
    47    47    48    1
    48    86    83    1
    49   106   107    2
    50     1     2    1
    51    80    79    1
    52    51    48    1
    53    51    52    1
    54    81    79    1
    55    91    88    1
    56   119   118    2
    57    82    83    1
    58    82    77   am
    59    48    49    1
    60     6     5    1
    61    62    61    1
    62    87    88    1
    63    87    84   am
    64    83    84    1
    65    74    73    2
    66    76    79    1
    67    76    77    1
    68    76    75    1
    69   117   118    1
    70   117   116    1
    71     2     5    1
    72     2     3    1
    73    88    89    1
    74    77    78    2
    75    61    60    1
    76    84    85    2
    77    73    75   am
    78    73    72    1
    79     5     7    1
    80    49    50    2
    81     3     4    2
    82    72    71    1
    83   108   109    1
    84    89    90    2
    85    60    59    1
    86   112   109    1
    87   112   113    1
    88   111   110    2
    89   103   101    1
    90   109   110    1
    91   115   113    1
    92    59    58    1
    93   113   114    1
    94   101   102    1
    95   101    98    1
    96    58    55    1
    97    92    93    1
    98    96    93    1
    99    54    55    1
   100    97    98    1
   101    97    94   am
   102    55    56    1
   103    98    99    1
   104    66    65    2
   105    93    94    1
   106    94    95    2
   107    70    68    1
   108    65    64    1
   109    99   100    2
   110    56    57    2
   111    68    67    1
   112    67    64    1
   113    67    69    1
   114    64    63    1
