@<TRIPOS>MOLECULE
tmp/2fhjB00.pdb
 141 136 0 0 0
SMALL
GASTEIGER

@<TRIPOS>ATOM
      1  N        -45.8660   82.4240   70.9650 N.3    45  THR45      -0.1203
      2  CA       -45.7000   83.5010   71.9480 C.3    45  THR45       0.1994
      3  C        -47.0460   83.9910   72.4430 C.2    45  THR45       0.2618
      4  O        -47.1920   84.3040   73.6190 O.2    45  THR45      -0.2717
      5  CB       -44.9170   84.7240   71.3850 C.3    45  THR45       0.1784
      6  OG1      -45.6160   85.3100   70.2930 O.3    45  THR45      -0.2211
      7  CG2      -43.5310   84.3360   70.9120 C.3    45  THR45       0.0376
      8  N        -48.0190   84.0240   71.5380 N.am   46  SER46      -0.1951
      9  CA       -49.3210   84.6140   71.8010 C.3    46  SER46       0.1924
     10  C        -50.3790   84.1350   70.7940 C.2    46  SER46       0.2314
     11  O        -50.1290   84.0940   69.5940 O.2    46  SER46      -0.2863
     12  CB       -49.2070   86.1330   71.7330 C.3    46  SER46       0.2116
     13  OG       -50.3690   86.7140   71.1690 O.3    46  SER46      -0.2180
     14  N        -52.7840   85.7360   69.6950 N.3    48  ILE48      -0.1231
     15  CA       -53.2690   86.8380   68.8620 C.3    48  ILE48       0.1692
     16  C        -53.0870   86.4610   67.3880 C.2    48  ILE48       0.2591
     17  O        -54.0040   86.6270   66.5730 O.2    48  ILE48      -0.2718
     18  CB       -52.5340   88.1740   69.1970 C.3    48  ILE48       0.0266
     19  CG1      -52.9750   88.6810   70.5750 C.3    48  ILE48       0.0019
     20  CG2      -52.8230   89.2400   68.1390 C.3    48  ILE48       0.0020
     21  CD1      -52.0000   89.6520   71.2240 C.3    48  ILE48       0.0001
     22  N        -51.8910   85.9600   67.0670 N.am   49  MET49      -0.1979
     23  CA       -51.5800   85.4630   65.7270 C.3    49  MET49       0.1605
     24  C        -50.5890   84.2750   65.6800 C.2    49  MET49       0.2287
     25  O        -50.0780   83.9570   64.6050 O.2    49  MET49      -0.2864
     26  CB       -51.0710   86.6190   64.8670 C.3    49  MET49       0.0413
     27  CG       -52.1520   87.2780   64.0320 C.3    49  MET49       0.0598
     28  SD       -51.7060   88.9020   63.3880 S.3    49  MET49      -0.1393
     29  CE       -49.8910   88.9100   63.4250 C.3    49  MET49       0.0692
     30  N        -44.6500   94.6900   84.3040 N.3   170  TYR170     -0.1241
     31  CA       -43.8640   95.5640   83.4600 C.3   170  TYR170      0.1605
     32  C        -42.6430   96.0240   84.2190 C.2   170  TYR170      0.2264
     33  O        -42.7400   96.4060   85.3760 O.2   170  TYR170     -0.2867
     34  CB       -44.6650   96.8000   83.0910 C.3   170  TYR170      0.0534
     35  CG       -45.7650   96.5760   82.0980 C.ar  170  TYR170     -0.0201
     36  CD1      -47.0830   96.4950   82.4960 C.ar  170  TYR170     -0.0009
     37  CD2      -45.4830   96.4890   80.7480 C.ar  170  TYR170     -0.0009
     38  CE1      -48.1050   96.3110   81.5580 C.ar  170  TYR170      0.0417
     39  CE2      -46.4780   96.3170   79.8130 C.ar  170  TYR170      0.0417
     40  CZ       -47.7880   96.2240   80.2180 C.ar  170  TYR170      0.1957
     41  OH       -48.7650   96.0510   79.2610 O.3   170  TYR170     -0.2866
     42  N        -42.9930   84.3630   75.5330 N.3   200  PHE200     -0.1241
     43  CA       -42.4480   85.3260   74.5760 C.3   200  PHE200      0.1605
     44  C        -40.9570   85.0760   74.3640 C.2   200  PHE200      0.2264
     45  O        -40.3530   84.3720   75.1540 O.2   200  PHE200     -0.2867
     46  CB       -42.7760   86.7700   75.0220 C.3   200  PHE200      0.0534
     47  CG       -44.2080   87.1460   74.7500 C.ar  200  PHE200     -0.0203
     48  CD1      -45.2090   86.8450   75.6650 C.ar  200  PHE200     -0.0042
     49  CD2      -44.5600   87.7110   73.5470 C.ar  200  PHE200     -0.0042
     50  CE1      -46.5480   87.1520   75.3840 C.ar  200  PHE200     -0.0003
     51  CE2      -45.8760   88.0100   73.2650 C.ar  200  PHE200     -0.0003
     52  CZ       -46.8680   87.7330   74.1850 C.ar  200  PHE200     -0.0000
     53  N        -41.4070   90.4690   76.3790 N.3   205  VAL205     -0.1245
     54  CA       -42.2190   91.1310   75.3540 C.3   205  VAL205      0.1561
     55  C        -41.7320   92.5590   75.2130 C.2   205  VAL205      0.2260
     56  O        -41.8260   93.3410   76.1660 O.2   205  VAL205     -0.2867
     57  CB       -43.7120   91.2090   75.7280 C.3   205  VAL205      0.0252
     58  CG1      -44.5390   91.3730   74.4670 C.3   205  VAL205      0.0019
     59  CG2      -44.1510   89.9890   76.5230 C.3   205  VAL205      0.0019
     60  N        -42.9260   94.5070   72.8800 N.3   207  SER207     -0.1202
     61  CA       -43.9930   95.2060   72.1870 C.3   207  SER207      0.2020
     62  C        -45.3530   94.8210   72.7490 C.2   207  SER207      0.2619
     63  O        -46.1810   94.2280   72.0490 O.2   207  SER207     -0.2717
     64  CB       -43.9220   94.9030   70.6840 C.3   207  SER207      0.2103
     65  OG       -44.0850   93.5160   70.4240 O.3   207  SER207     -0.2182
     66  N        -45.5750   95.1770   74.0140 N.am  208  ALA208     -0.1965
     67  CA       -46.8340   94.9050   74.6840 C.3   208  ALA208      0.1728
     68  C        -47.9640   95.5860   73.9510 C.2   208  ALA208      0.2616
     69  O        -47.7790   96.6040   73.2950 O.2   208  ALA208     -0.2715
     70  CB       -46.7910   95.3570   76.1210 C.3   208  ALA208      0.0334
     71  N        -49.1240   94.9800   74.0730 N.am  209  SER209     -0.1950
     72  CA       -50.2920   95.3170   73.2900 C.3   209  SER209      0.1924
     73  C        -51.4140   95.8480   74.1730 C.2   209  SER209      0.2314
     74  O        -51.3500   95.7490   75.3940 O.2   209  SER209     -0.2863
     75  CB       -50.7780   94.0720   72.5240 C.3   209  SER209      0.2116
     76  OG       -50.7270   92.9010   73.3260 O.3   209  SER209     -0.2180
     77  N        -57.9550  101.9940   63.9770 N.3   216  TYR216     -0.1241
     78  CA       -58.2670  101.0550   62.8990 C.3   216  TYR216      0.1605
     79  C        -59.3810  100.0780   63.2940 C.2   216  TYR216      0.2264
     80  O        -59.5370   99.7510   64.4720 O.2   216  TYR216     -0.2867
     81  CB       -56.9910  100.3090   62.4750 C.3   216  TYR216      0.0534
     82  CG       -55.8150  101.2370   62.1900 C.ar  216  TYR216     -0.0201
     83  CD1      -54.6770  101.2400   62.9970 C.ar  216  TYR216     -0.0009
     84  CD2      -55.8560  102.1340   61.1260 C.ar  216  TYR216     -0.0009
     85  CE1      -53.6090  102.1010   62.7300 C.ar  216  TYR216      0.0417
     86  CE2      -54.7980  102.9980   60.8630 C.ar  216  TYR216      0.0417
     87  CZ       -53.6830  102.9800   61.6700 C.ar  216  TYR216      0.1957
     88  OH       -52.6390  103.8310   61.3950 O.3   216  TYR216     -0.2866
     89  N        -59.7800   96.9580   61.8550 N.3   218  PHE218     -0.1227
     90  CA       -59.3900   95.6070   61.4410 C.3   218  PHE218      0.1736
     91  C        -58.2910   95.0330   62.3230 C.2   218  PHE218      0.2595
     92  O        -57.6400   94.0640   61.9320 O.2   218  PHE218     -0.2718
     93  CB       -58.9320   95.6040   59.9650 C.3   218  PHE218      0.0547
     94  CG       -57.9360   96.6940   59.6230 C.ar  218  PHE218     -0.0202
     95  CD1      -56.5830   96.5310   59.8910 C.ar  218  PHE218     -0.0042
     96  CD2      -58.3600   97.8840   59.0350 C.ar  218  PHE218     -0.0042
     97  CE1      -55.6670   97.5370   59.5810 C.ar  218  PHE218     -0.0003
     98  CE2      -57.4560   98.8920   58.7200 C.ar  218  PHE218     -0.0003
     99  CZ       -56.1060   98.7180   58.9920 C.ar  218  PHE218     -0.0000
    100  N        -58.0860   95.6130   63.5080 N.am  219  LEU219     -0.1966
    101  CA       -57.0180   95.1560   64.4000 C.3   219  LEU219      0.1713
    102  C        -57.5190   94.5290   65.7140 C.2   219  LEU219      0.2458
    103  O        -58.1810   95.2020   66.5140 O.2   219  LEU219     -0.2730
    104  CB       -56.0340   96.2970   64.7110 C.3   219  LEU219      0.0310
    105  CG       -54.9620   96.6590   63.6660 C.3   219  LEU219      0.0022
    106  CD1      -53.8100   97.3640   64.3520 C.3   219  LEU219      0.0001
    107  CD2      -54.4200   95.4620   62.8880 C.3   219  LEU219      0.0001
    108  N        -57.1710   93.2420   65.9520 N.am  220  PRO220     -0.2716
    109  CA       -57.5050   92.5980   67.2240 C.3   220  PRO220      0.1536
    110  C        -56.7380   93.2160   68.3980 C.2   220  PRO220      0.2598
    111  O        -57.2480   93.2670   69.5250 O.2   220  PRO220     -0.2715
    112  CB       -57.0780   91.1400   67.0010 C.3   220  PRO220      0.0310
    113  CG       -56.0330   91.2020   65.9640 C.3   220  PRO220      0.0237
    114  CD       -56.4310   92.3230   65.0610 C.3   220  PRO220      0.0939
    115  N        -55.5150   93.6660   68.1220 N.am  221  ALA221     -0.1964
    116  CA       -54.7110   94.3790   69.0990 C.3   221  ALA221      0.1728
    117  C        -53.7810   95.3440   68.3730 C.2   221  ALA221      0.2616
    118  O        -53.6020   95.2410   67.1580 O.2   221  ALA221     -0.2715
    119  CB       -53.9140   93.3970   69.9480 C.3   221  ALA221      0.0334
    120  N        -53.2110   96.2820   69.1280 N.am  222  SER222     -0.1950
    121  CA       -52.2320   97.2440   68.6160 C.3   222  SER222      0.1924
    122  C        -51.2990   97.5960   69.7620 C.2   222  SER222      0.2314
    123  O        -51.4430   97.0390   70.8470 O.2   222  SER222     -0.2863
    124  CB       -52.9220   98.4960   68.0610 C.3   222  SER222      0.2116
    125  OG       -53.8430   99.0480   68.9960 O.3   222  SER222     -0.2180
    126  N        -42.3980   93.9580   79.1790 N.3   245  GLU245     -0.1245
    127  CA       -43.3720   93.1400   79.8800 C.3   245  GLU245      0.1567
    128  C        -42.9270   91.6920   79.9160 C.2   245  GLU245      0.2260
    129  O        -42.5190   91.1400   78.8960 O.2   245  GLU245     -0.2867
    130  CB       -44.7250   93.2090   79.1760 C.3   245  GLU245      0.0388
    131  CG       -45.8380   92.6620   80.0190 C.3   245  GLU245      0.1160
    132  CD       -47.1530   92.6530   79.2850 C.2   245  GLU245      0.3649
    133  OE1      -47.1380   92.9310   78.0700 O.co2 245  GLU245     -0.2457
    134  OE2      -48.1990   92.3550   79.9160 O.co2 245  GLU245     -0.2457
    135  N        -44.5950   88.1730   80.4640 N.3   247  VAL247     -0.1245
    136  CA       -45.8970   87.5100   80.5170 C.3   247  VAL247      0.1561
    137  C        -45.7430   86.0440   80.9000 C.2   247  VAL247      0.2260
    138  O        -44.9140   85.3180   80.3300 O.2   247  VAL247     -0.2867
    139  CB       -46.5870   87.6050   79.1930 C.3   247  VAL247      0.0252
    140  CG1      -47.9270   86.8690   79.2580 C.3   247  VAL247      0.0019
    141  CG2      -46.7860   89.0570   78.8140 C.3   247  VAL247      0.0019
@<TRIPOS>BOND
     1    98    99   ar
     2    98    96   ar
     3    99    97   ar
     4    96    94   ar
     5    97    95   ar
     6    94    95   ar
     7    94    93    1
     8    93    90    1
     9    86    84   ar
    10    86    87   ar
    11    84    82   ar
    12    88    87    1
    13    90    89    1
    14    90    91    1
    15    87    85   ar
    16    92    91    2
    17    82    81    1
    18    82    83   ar
    19    91   100   am
    20    81    78    1
    21    85    83   ar
    22   107   105    1
    23    78    79    1
    24    78    77    1
    25    79    80    2
    26    28    29    1
    27    28    27    1
    28   100   101    1
    29   105   106    1
    30   105   104    1
    31    27    26    1
    32   101   104    1
    33   101   102    1
    34    25    24    2
    35    26    23    1
    36   114   108    1
    37   114   113    1
    38    24    23    1
    39   102   108   am
    40   102   103    2
    41    23    22    1
    42   108   109    1
    43   113   112    1
    44    17    16    2
    45   112   109    1
    46    22    16   am
    47   118   117    2
    48   109   110    1
    49    16    15    1
    50   124   121    1
    51   124   125    1
    52   115   110   am
    53   115   116    1
    54    20    18    1
    55   117   116    1
    56   117   120   am
    57   110   111    2
    58   121   120    1
    59   121   122    1
    60    15    18    1
    61    15    14    1
    62   116   119    1
    63    18    19    1
    64    11    10    2
    65   122   123    2
    66     6     5    1
    67    65    64    1
    68    19    21    1
    69    64    61    1
    70    10     9    1
    71     7     5    1
    72     1     2    1
    73    13    12    1
    74     5     2    1
    75     8     9    1
    76     8     3   am
    77    12     9    1
    78     2     3    1
    79    63    62    2
    80    61    62    1
    81    61    60    1
    82     3     4    2
    83    75    72    1
    84    75    76    1
    85    62    66   am
    86    51    49   ar
    87    51    52   ar
    88    72    71    1
    89    72    73    1
    90    69    68    2
    91    49    47   ar
    92    68    71   am
    93    68    67    1
    94    66    67    1
    95    73    74    2
    96    52    50   ar
    97    44    43    1
    98    44    45    2
    99    58    57    1
   100    43    46    1
   101    43    42    1
   102    67    70    1
   103    47    46    1
   104    47    48   ar
   105    55    54    1
   106    55    56    2
   107    54    57    1
   108    54    53    1
   109    50    48   ar
   110    57    59    1
   111   133   132   ar
   112   141   139    1
   113   129   128    2
   114   130   127    1
   115   130   131    1
   116   126   127    1
   117   139   140    1
   118   139   136    1
   119    41    40    1
   120   132   134   ar
   121   132   131    1
   122    39    40   ar
   123    39    37   ar
   124   127   128    1
   125    40    38   ar
   126   138   137    2
   127   135   136    1
   128   136   137    1
   129    37    35   ar
   130    38    36   ar
   131    35    36   ar
   132    35    34    1
   133    34    31    1
   134    31    32    1
   135    31    30    1
   136    32    33    2
