@<TRIPOS>MOLECULE
tmp/2fhjA02.pdb
 164 154 0 0 0
SMALL
GASTEIGER

@<TRIPOS>ATOM
      1  N        -35.9190   64.1280   44.8970 N.3    14  GLU14      -0.1245
      2  CA       -36.9410   64.7840   44.1180 C.3    14  GLU14       0.1567
      3  C        -37.4870   65.9710   44.9000 C.2    14  GLU14       0.2260
      4  O        -38.2070   65.8080   45.8800 O.2    14  GLU14      -0.2867
      5  CB       -38.0460   63.7910   43.7720 C.3    14  GLU14       0.0388
      6  CG       -39.1200   64.3190   42.8130 C.3    14  GLU14       0.1160
      7  CD       -39.9250   63.1940   42.1860 C.2    14  GLU14       0.3649
      8  OE1      -39.4730   62.0340   42.2430 O.co2  14  GLU14      -0.2457
      9  OE2      -41.0140   63.4650   41.6430 O.co2  14  GLU14      -0.2457
     10  N        -39.1010   70.1940   44.8940 N.3    16  PHE16      -0.1227
     11  CA       -40.2690   70.8970   44.3820 C.3    16  PHE16       0.1736
     12  C        -40.0560   72.4010   44.3430 C.2    16  PHE16       0.2595
     13  O        -39.2960   72.9470   45.1390 O.2    16  PHE16      -0.2718
     14  CB       -41.4520   70.6470   45.3140 C.3    16  PHE16       0.0547
     15  CG       -41.8790   69.2230   45.3810 C.ar   16  PHE16      -0.0202
     16  CD1      -41.1700   68.3030   46.1330 C.ar   16  PHE16      -0.0042
     17  CD2      -43.0090   68.7980   44.6980 C.ar   16  PHE16      -0.0042
     18  CE1      -41.5690   66.9750   46.1920 C.ar   16  PHE16      -0.0003
     19  CE2      -43.4140   67.4680   44.7540 C.ar   16  PHE16      -0.0003
     20  CZ       -42.6940   66.5580   45.5060 C.ar   16  PHE16      -0.0000
     21  N        -40.7590   73.0610   43.4310 N.am   17  GLU17      -0.1965
     22  CA       -40.9150   74.5040   43.4740 C.3    17  GLU17       0.1733
     23  C        -41.6320   74.8830   44.7550 C.2    17  GLU17       0.2616
     24  O        -42.5760   74.2070   45.1650 O.2    17  GLU17      -0.2715
     25  CB       -41.7370   74.9950   42.2940 C.3    17  GLU17       0.0429
     26  CG       -40.9590   75.1960   41.0130 C.3    17  GLU17       0.1163
     27  CD       -41.8610   75.6350   39.8740 C.2    17  GLU17       0.3649
     28  OE1      -43.1080   75.4940   40.0070 O.co2  17  GLU17      -0.2457
     29  OE2      -41.3270   76.1260   38.8500 O.co2  17  GLU17      -0.2457
     30  N        -41.1850   75.9590   45.3890 N.am   18  ALA18      -0.1977
     31  CA       -41.8090   76.4320   46.6200 C.3    18  ALA18       0.1597
     32  C        -41.5860   77.9250   46.7790 C.2    18  ALA18       0.2287
     33  O        -40.5890   78.4510   46.3020 O.2    18  ALA18      -0.2864
     34  CB       -41.2400   75.6920   47.8120 C.3    18  ALA18       0.0319
     35  N        -41.1810   72.7670   60.5800 N.3    45  THR45      -0.1203
     36  CA       -40.3300   71.7050   60.0310 C.3    45  THR45       0.1994
     37  C        -40.8440   71.2330   58.6830 C.2    45  THR45       0.2619
     38  O        -40.0630   70.8980   57.7910 O.2    45  THR45      -0.2717
     39  CB       -40.2520   70.4820   60.9750 C.3    45  THR45       0.1784
     40  OG1      -41.5580   69.9340   61.1640 O.3    45  THR45      -0.2211
     41  CG2      -39.6600   70.8570   62.3300 C.3    45  THR45       0.0376
     42  N        -42.1630   71.2180   58.5450 N.am   46  SER46      -0.1937
     43  CA       -42.8110   70.6170   57.3940 C.3    46  SER46       0.2055
     44  C        -44.2450   71.0900   57.2810 C.2    46  SER46       0.2643
     45  O        -44.9620   71.1230   58.2680 O.2    46  SER46      -0.2714
     46  CB       -42.8060   69.1070   57.5400 C.3    46  SER46       0.2130
     47  OG       -43.9930   68.5570   57.0190 O.3    46  SER46      -0.2179
     48  N        -44.6620   71.4340   56.0670 N.am   47  VAL47      -0.1963
     49  CA       -46.0550   71.8290   55.8050 C.3    47  VAL47       0.1727
     50  C        -47.0800   70.6790   55.8310 C.2    47  VAL47       0.2616
     51  O        -48.2460   70.8950   55.5150 O.2    47  VAL47      -0.2715
     52  CB       -46.1970   72.5860   54.4620 C.3    47  VAL47       0.0290
     53  CG1      -45.4350   73.8870   54.5090 C.3    47  VAL47       0.0023
     54  CG2      -45.7490   71.7370   53.2880 C.3    47  VAL47       0.0023
     55  N        -46.6620   69.4670   56.1980 N.am   48  ILE48      -0.1977
     56  CA       -47.6080   68.3690   56.4170 C.3    48  ILE48       0.1596
     57  C        -48.5620   68.7610   57.5580 C.2    48  ILE48       0.2287
     58  O        -49.7780   68.6390   57.4430 O.2    48  ILE48      -0.2864
     59  CB       -46.8790   67.0420   56.7290 C.3    48  ILE48       0.0276
     60  CG1      -46.1430   66.5390   55.4830 C.3    48  ILE48       0.0022
     61  CG2      -47.8610   65.9770   57.2220 C.3    48  ILE48       0.0022
     62  CD1      -45.0360   65.5630   55.7830 C.3    48  ILE48       0.0001
     63  N        -42.3370   76.0440   56.5820 N.3    53  GLU53      -0.1245
     64  CA       -41.0280   75.4390   56.6730 C.3    53  GLU53       0.1567
     65  C        -40.0100   76.5650   56.8410 C.2    53  GLU53       0.2260
     66  O        -39.8010   77.3700   55.9340 O.2    53  GLU53      -0.2867
     67  CB       -40.7430   74.6080   55.4230 C.3    53  GLU53       0.0388
     68  CG       -41.4600   73.2830   55.4260 C.3    53  GLU53       0.1160
     69  CD       -41.4370   72.5600   54.0960 C.2    53  GLU53       0.3649
     70  OE1      -40.5580   72.8560   53.2650 O.co2  53  GLU53      -0.2457
     71  OE2      -42.3200   71.6930   53.8810 O.co2  53  GLU53      -0.2457
     72  N        -45.5710   76.1380   49.9970 N.3    80  ASN80      -0.1240
     73  CA       -45.9610   75.8000   48.6330 C.3    80  ASN80       0.1653
     74  C        -46.9200   76.8470   48.0680 C.2    80  ASN80       0.2266
     75  O        -46.8360   77.1960   46.8980 O.2    80  ASN80      -0.2867
     76  CB       -46.5530   74.3830   48.5850 C.3    80  ASN80       0.1155
     77  CG       -47.7810   74.2240   49.4710 C.2    80  ASN80       0.2627
     78  OD1      -48.8520   74.6260   49.1660 O.2    80  ASN80      -0.2716
     79  ND2      -47.6060   73.6370   50.5540 N.am   80  ASN80      -0.0877
     80  N        -37.7390   73.2860   47.2460 N.3   165  ALA165     -0.1231
     81  CA       -38.0040   72.6820   48.5410 C.3   165  ALA165      0.1694
     82  C        -37.9200   71.1650   48.4690 C.2   165  ALA165      0.2592
     83  O        -38.3500   70.5610   47.4940 O.2   165  ALA165     -0.2718
     84  CB       -39.3420   73.1220   49.0620 C.3   165  ALA165      0.0304
     85  N        -37.3360   70.5540   49.4980 N.am  166  GLY166     -0.1957
     86  CA       -37.3580   69.1110   49.6340 C.3   166  GLY166      0.1869
     87  C        -36.1580   68.3900   49.0660 C.2   166  GLY166      0.2309
     88  O        -36.1930   67.1790   48.9020 O.2   166  GLY166     -0.2863
     89  N        -32.8170   66.4810   49.5180 N.3   168  ASN168     -0.1240
     90  CA       -32.5950   65.5610   50.6310 C.3   168  ASN168      0.1653
     91  C        -31.5700   64.4770   50.3760 C.2   168  ASN168      0.2266
     92  O        -31.1690   64.2130   49.2420 O.2   168  ASN168     -0.2867
     93  CB       -33.9120   64.8800   51.0500 C.3   168  ASN168      0.1155
     94  CG       -34.3100   63.7650   50.1170 C.2   168  ASN168      0.2627
     95  OD1      -33.7320   62.6830   50.1490 O.2   168  ASN168     -0.2716
     96  ND2      -35.2950   64.0270   49.2690 N.am  168  ASN168     -0.0877
     97  N        -35.0370   72.5920   57.5460 N.3   199  PRO199     -0.2102
     98  CA       -36.1160   72.9620   58.4590 C.3   199  PRO199      0.1504
     99  C        -36.3710   72.0300   59.6590 C.2   199  PRO199      0.2575
    100  O        -37.0220   72.4500   60.6160 O.2   199  PRO199     -0.2718
    101  CB       -37.3520   73.0260   57.5450 C.3   199  PRO199      0.0282
    102  CG       -37.0560   72.1440   56.4160 C.3   199  PRO199      0.0208
    103  CD       -35.5510   72.1690   56.2330 C.3   199  PRO199      0.0893
    104  N        -35.8490   70.8110   59.6550 N.am  200  PHE200     -0.1977
    105  CA       -36.1730   69.8670   60.7290 C.3   200  PHE200      0.1639
    106  C        -35.3480   70.1300   61.9940 C.2   200  PHE200      0.2290
    107  O        -34.3890   70.8960   61.9360 O.2   200  PHE200     -0.2864
    108  CB       -36.0730   68.4210   60.2030 C.3   200  PHE200      0.0560
    109  CG       -37.2230   68.0610   59.3030 C.ar  200  PHE200     -0.0200
    110  CD1      -37.1890   68.3630   57.9480 C.ar  200  PHE200     -0.0042
    111  CD2      -38.3670   67.5130   59.8310 C.ar  200  PHE200     -0.0042
    112  CE1      -38.2990   68.0720   57.1190 C.ar  200  PHE200     -0.0003
    113  CE2      -39.4490   67.2250   59.0320 C.ar  200  PHE200     -0.0003
    114  CZ       -39.4120   67.5070   57.6730 C.ar  200  PHE200     -0.0000
    115  N        -45.7280   59.1970   51.0100 N.3   211  VAL211     -0.1245
    116  CA       -47.0150   59.8210   50.6820 C.3   211  VAL211      0.1561
    117  C        -48.1360   58.8690   51.0900 C.2   211  VAL211      0.2260
    118  O        -48.1150   57.7030   50.7210 O.2   211  VAL211     -0.2867
    119  CB       -47.1370   60.1800   49.1790 C.3   211  VAL211      0.0252
    120  CG1      -48.5590   60.6570   48.8340 C.3   211  VAL211      0.0019
    121  CG2      -46.1160   61.2500   48.7850 C.3   211  VAL211      0.0019
    122  N        -32.7500   61.2260   57.7110 N.3   245  GLU245     -0.1245
    123  CA       -32.8630   62.0420   56.5210 C.3   245  GLU245      0.1567
    124  C        -32.4800   63.4830   56.8350 C.2   245  GLU245      0.2260
    125  O        -32.9110   64.0250   57.8450 O.2   245  GLU245     -0.2867
    126  CB       -34.2950   61.9950   55.9660 C.3   245  GLU245      0.0388
    127  CG       -34.4080   62.5390   54.5730 C.3   245  GLU245      0.1160
    128  CD       -35.8450   62.5540   54.0480 C.2   245  GLU245      0.3649
    129  OE1      -36.7880   62.3130   54.8450 O.co2 245  GLU245     -0.2457
    130  OE2      -36.0300   62.8130   52.8370 O.co2 245  GLU245     -0.2457
    131  N        -33.1990   66.9910   55.1680 N.3   247  VAL247     -0.1245
    132  CA       -34.0010   67.6790   54.1590 C.3   247  VAL247      0.1561
    133  C        -33.5730   69.1360   54.0530 C.2   247  VAL247      0.2260
    134  O        -33.3700   69.8150   55.0710 O.2   247  VAL247     -0.2867
    135  CB       -35.4640   67.6010   54.5190 C.3   247  VAL247      0.0252
    136  CG1      -36.2850   68.3120   53.4910 C.3   247  VAL247      0.0019
    137  CG2      -35.8790   66.1440   54.6370 C.3   247  VAL247      0.0019
    138  N        -34.0360   72.9290   52.0210 N.3   249  ASN249     -0.1240
    139  CA       -34.7060   73.9040   51.1720 C.3   249  ASN249      0.1653
    140  C        -33.7460   75.0130   50.8170 C.2   249  ASN249      0.2266
    141  O        -32.9050   75.3770   51.6330 O.2   249  ASN249     -0.2867
    142  CB       -35.8740   74.5120   51.9070 C.3   249  ASN249      0.1155
    143  CG       -36.8940   73.5010   52.2900 C.2   249  ASN249      0.2627
    144  OD1      -36.7760   72.3280   51.9430 O.2   249  ASN249     -0.2716
    145  ND2      -37.9160   73.9430   53.0170 N.am  249  ASN249     -0.0877
    146  N        -40.0200   60.4470   44.3220 N.3   281  PHE281     -0.1241
    147  CA       -41.3910   60.0240   44.0680 C.3   281  PHE281      0.1605
    148  C        -41.4700   59.4570   42.6570 C.2   281  PHE281      0.2264
    149  O        -42.5080   59.5020   42.0100 O.2   281  PHE281     -0.2867
    150  CB       -42.3380   61.2120   44.2750 C.3   281  PHE281      0.0534
    151  CG       -42.1340   61.8960   45.5880 C.ar  281  PHE281     -0.0203
    152  CD1      -41.1660   62.8820   45.7240 C.ar  281  PHE281     -0.0042
    153  CD2      -42.8580   61.5180   46.7000 C.ar  281  PHE281     -0.0042
    154  CE1      -40.9380   63.4960   46.9370 C.ar  281  PHE281     -0.0003
    155  CE2      -42.6410   62.1340   47.9230 C.ar  281  PHE281     -0.0003
    156  CZ       -41.6730   63.1240   48.0350 C.ar  281  PHE281     -0.0000
    157  N        -43.8290   63.5940   40.6150 N.3   285  LEU285     -0.1245
    158  CA       -44.3880   64.6810   41.4390 C.3   285  LEU285      0.1561
    159  C        -43.5470   65.9550   41.4370 C.2   285  LEU285      0.2260
    160  O        -44.0710   67.0420   41.2080 O.2   285  LEU285     -0.2867
    161  CB       -44.5820   64.1960   42.8750 C.3   285  LEU285      0.0270
    162  CG       -45.5780   63.0470   43.0800 C.3   285  LEU285      0.0019
    163  CD1      -45.5470   62.5480   44.5080 C.3   285  LEU285      0.0001
    164  CD2      -46.9940   63.4620   42.7180 C.3   285  LEU285      0.0001
@<TRIPOS>BOND
     1    29    27   ar
     2    27    28   ar
     3    27    26    1
     4   157   158    1
     5    26    25    1
     6   160   159    2
     7   159   158    1
     8   158   161    1
     9     9     7   ar
    10   149   148    2
    11     7     8   ar
    12     7     6    1
    13    25    22    1
    14   148   147    1
    15   164   162    1
    16     6     5    1
    17   161   162    1
    18   162   163    1
    19    21    22    1
    20    21    12   am
    21    22    23    1
    22     5     2    1
    23   147   150    1
    24   147   146    1
    25     2     1    1
    26     2     3    1
    27   150   151    1
    28    12    11    1
    29    12    13    2
    30    11    10    1
    31    11    14    1
    32    17    19   ar
    33    17    15   ar
    34    19    20   ar
    35    23    24    2
    36    23    30   am
    37     3     4    2
    38    14    15    1
    39    15    16   ar
    40    30    31    1
    41    20    18   ar
    42   151   152   ar
    43   151   153   ar
    44   152   154   ar
    45    16    18   ar
    46    33    32    2
    47    31    32    1
    48    31    34    1
    49   153   155   ar
    50    75    74    2
    51   154   156   ar
    52    80    81    1
    53    83    82    2
    54   155   156   ar
    55    74    73    1
    56    82    81    1
    57    82    85   am
    58    81    84    1
    59    76    73    1
    60    76    77    1
    61    73    72    1
    62   121   119    1
    63   120   119    1
    64    88    87    2
    65    87    86    1
    66    78    77    2
    67   119   116    1
    68    92    91    2
    69    96    94   am
    70    77    79   am
    71    85    86    1
    72    89    90    1
    73    94    95    2
    74    94    93    1
    75    91    90    1
    76    90    93    1
    77   116   115    1
    78   116   117    1
    79   118   117    2
    80   140   139    1
    81   140   141    2
    82   139   142    1
    83   139   138    1
    84   142   143    1
    85   144   143    2
    86   143   145   am
    87   130   128   ar
    88    70    69   ar
    89    54    52    1
    90   136   135    1
    91    71    69   ar
    92   128   127    1
    93   128   129   ar
    94   133   132    1
    95   133   134    2
    96    69    68    1
    97   132   135    1
    98   132   131    1
    99    52    53    1
   100    52    49    1
   101   135   137    1
   102   127   126    1
   103    67    68    1
   104    67    64    1
   105    60    62    1
   106    60    59    1
   107    51    50    2
   108    49    50    1
   109    49    48    1
   110    50    55   am
   111    66    65    2
   112   126   123    1
   113    48    44   am
   114    55    56    1
   115   103   102    1
   116   103    97    1
   117   102   101    1
   118    56    59    1
   119    56    57    1
   120   123   124    1
   121   123   122    1
   122    63    64    1
   123    64    65    1
   124    59    61    1
   125   124   125    2
   126    47    46    1
   127   112   114   ar
   128   112   110   ar
   129    44    43    1
   130    44    45    2
   131    43    46    1
   132    43    42    1
   133    58    57    2
   134   101    98    1
   135    97    98    1
   136   114   113   ar
   137    38    37    2
   138   110   109   ar
   139    98    99    1
   140    42    37   am
   141    37    36    1
   142   113   111   ar
   143   109   111   ar
   144   109   108    1
   145   104    99   am
   146   104   105    1
   147    99   100    2
   148    36    35    1
   149    36    39    1
   150   108   105    1
   151   105   106    1
   152    39    40    1
   153    39    41    1
   154   107   106    2
