@<TRIPOS>MOLECULE
tmp/2fhjD02.pdb
 104 96 0 0 0
SMALL
GASTEIGER

@<TRIPOS>ATOM
      1  N        -19.2610   70.7420   65.6620 N.3    30  HIS30      -0.1241
      2  CA       -18.8730   72.0530   66.1850 C.3    30  HIS30       0.1621
      3  C        -19.1010   72.1290   67.6940 C.2    30  HIS30       0.2264
      4  O        -18.3680   72.8350   68.3900 O.2    30  HIS30      -0.2867
      5  CB       -19.6090   73.1670   65.4310 C.3    30  HIS30       0.0745
      6  CG       -19.5850   74.5030   66.1100 C.ar   30  HIS30       0.0817
      7  ND1      -18.9820   75.6030   65.5620 N.ar   30  HIS30      -0.2268
      8  CD2      -20.1560   74.9270   67.2590 C.ar   30  HIS30       0.1154
      9  CE1      -19.1630   76.6430   66.3520 C.ar   30  HIS30       0.1986
     10  NE2      -19.8690   76.2560   67.3900 N.ar   30  HIS30      -0.2212
     11  N        -16.0760   73.0210   70.1420 N.3    34  MET34      -0.1245
     12  CA       -16.2510   74.0860   71.1220 C.3    34  MET34       0.1570
     13  C        -15.9690   73.6470   72.5560 C.2    34  MET34       0.2261
     14  O        -15.4620   74.4370   73.3470 O.2    34  MET34      -0.2867
     15  CB       -17.6530   74.7150   71.0110 C.3    34  MET34       0.0387
     16  CG       -17.7990   75.7570   69.8630 C.3    34  MET34       0.0595
     17  SD       -16.4780   77.0260   69.8700 S.3    34  MET34      -0.1393
     18  CE       -16.8400   77.8450   71.4000 C.3    34  MET34       0.0692
     19  N        -13.0800   75.7350   74.4470 N.3    38  LYS38      -0.1245
     20  CA       -13.3630   76.4440   75.6960 C.3    38  LYS38       0.1561
     21  C        -12.4500   75.9850   76.8250 C.2    38  LYS38       0.2260
     22  O        -11.9590   76.8060   77.6150 O.2    38  LYS38      -0.2867
     23  CB       -14.8170   76.2560   76.1080 C.3    38  LYS38       0.0271
     24  CG       -15.7960   77.0010   75.2210 C.3    38  LYS38       0.0035
     25  CD       -15.8230   78.4870   75.5360 C.3    38  LYS38       0.0206
     26  CE       -16.6070   79.2640   74.4860 C.3    38  LYS38       0.1093
     27  NZ       -16.2090   80.7000   74.4180 N.3    38  LYS38      -0.1314
     28  N        -10.6380   82.2320   71.1420 N.3    56  ILE56      -0.1231
     29  CA       -11.0850   81.7350   69.8820 C.3    56  ILE56       0.1692
     30  C        -10.8170   82.7940   68.8430 C.2    56  ILE56       0.2592
     31  O        -11.1170   83.9710   69.0600 O.2    56  ILE56      -0.2718
     32  CB       -12.5860   81.4220   69.9000 C.3    56  ILE56       0.0266
     33  CG1      -12.8550   80.2610   70.8520 C.3    56  ILE56       0.0019
     34  CG2      -13.0600   81.0670   68.5070 C.3    56  ILE56       0.0020
     35  CD1      -14.1880   80.3770   71.6050 C.3    56  ILE56       0.0001
     36  N        -10.2450   82.3640   67.7230 N.am   57  ASP57      -0.1974
     37  CA       -10.1660   83.2070   66.5550 C.3    57  ASP57       0.1709
     38  C        -11.4160   83.0120   65.6720 C.2    57  ASP57       0.2293
     39  O        -12.3600   83.7700   65.8010 O.2    57  ASP57      -0.2864
     40  CB        -8.8730   82.9800   65.7760 C.3    57  ASP57       0.1436
     41  CG        -8.7640   83.8970   64.5810 C.2    57  ASP57       0.3671
     42  OD1       -7.9210   83.6690   63.6950 O.co2  57  ASP57      -0.2456
     43  OD2       -9.5410   84.8730   64.5220 O.co2  57  ASP57      -0.2456
     44  N        -14.7060   80.8700   64.8580 N.3    58  GLY58      -0.1210
     45  CA       -15.5960   79.9150   65.5080 C.3    58  GLY58       0.1956
     46  C        -16.2690   78.8720   64.6380 C.2    58  GLY58       0.2611
     47  O        -16.7170   77.8590   65.1570 O.2    58  GLY58      -0.2717
     48  N        -16.3370   79.1160   63.3360 N.am   59  TYR59      -0.1976
     49  CA       -16.8320   78.1110   62.4030 C.3    59  TYR59       0.1639
     50  C        -15.8970   78.0160   61.1690 C.2    59  TYR59       0.2290
     51  O        -15.8810   78.8810   60.2760 O.2    59  TYR59      -0.2864
     52  CB       -18.3110   78.3540   62.0280 C.3    59  TYR59       0.0560
     53  CG       -19.2920   78.4710   63.2060 C.ar   59  TYR59      -0.0198
     54  CD1      -19.3180   79.6170   63.9900 C.ar   59  TYR59      -0.0009
     55  CD2      -20.2310   77.4530   63.5090 C.ar   59  TYR59      -0.0009
     56  CE1      -20.2080   79.7390   65.0530 C.ar   59  TYR59       0.0417
     57  CE2      -21.1280   77.5840   64.5610 C.ar   59  TYR59       0.0417
     58  CZ       -21.1050   78.7170   65.3300 C.ar   59  TYR59       0.1957
     59  OH       -21.9970   78.8290   66.3720 O.3    59  TYR59      -0.2866
     60  N        -20.7060   93.8960   74.1070 N.3   183  GLU183     -0.1245
     61  CA       -20.9680   92.5860   73.4990 C.3   183  GLU183      0.1567
     62  C        -21.0960   92.6790   71.9750 C.2   183  GLU183      0.2260
     63  O        -20.5590   91.8330   71.2570 O.2   183  GLU183     -0.2867
     64  CB       -22.2100   91.9050   74.0950 C.3   183  GLU183      0.0388
     65  CG       -22.4960   90.5460   73.4480 C.3   183  GLU183      0.1160
     66  CD       -23.5310   89.7240   74.1890 C.2   183  GLU183      0.3649
     67  OE1      -24.3090   90.2970   74.9950 O.co2 183  GLU183     -0.2457
     68  OE2      -23.5940   88.5040   73.9260 O.co2 183  GLU183     -0.2457
     69  N        -17.8140   92.8080   70.5700 N.3   186  VAL186     -0.1231
     70  CA       -17.1610   91.4980   70.5080 C.3   186  VAL186      0.1692
     71  C        -17.6900   90.6240   69.3790 C.2   186  VAL186      0.2592
     72  O        -16.9090   89.9640   68.6930 O.2   186  VAL186     -0.2718
     73  CB       -17.2230   90.7880   71.8690 C.3   186  VAL186      0.0266
     74  CG1      -16.7460   89.3750   71.7560 C.3   186  VAL186      0.0020
     75  CG2      -16.3670   91.5450   72.8600 C.3   186  VAL186      0.0020
     76  N        -19.0000   90.6640   69.1290 N.am  187  ASP187     -0.1974
     77  CA       -19.5460   89.9590   67.9900 C.3   187  ASP187      0.1709
     78  C        -18.8490   90.4060   66.6910 C.2   187  ASP187      0.2293
     79  O        -18.5430   89.5910   65.8270 O.2   187  ASP187     -0.2864
     80  CB       -21.0780   90.2080   67.9060 C.3   187  ASP187      0.1436
     81  CG       -21.8720   89.5980   69.0870 C.2   187  ASP187      0.3671
     82  OD1      -21.3220   88.7270   69.8120 O.co2 187  ASP187     -0.2456
     83  OD2      -23.0730   89.9790   69.2890 O.co2 187  ASP187     -0.2456
     84  N        -15.2960   89.0390   66.7020 N.3   190  LYS190     -0.1245
     85  CA       -15.3650   87.6070   66.4060 C.3   190  LYS190      0.1561
     86  C        -15.0420   87.3500   64.9330 C.2   190  LYS190      0.2260
     87  O        -14.2070   86.4800   64.6220 O.2   190  LYS190     -0.2867
     88  CB       -16.7370   87.0100   66.7680 C.3   190  LYS190      0.0271
     89  CG       -16.9630   86.6760   68.2360 C.3   190  LYS190      0.0035
     90  CD       -18.3940   86.1260   68.4250 C.3   190  LYS190      0.0206
     91  CE       -18.7710   85.9150   69.8970 C.3   190  LYS190      0.1093
     92  NZ       -20.1500   85.3430   70.0630 N.3   190  LYS190     -0.1314
     93  N        -15.7110   86.7080   77.7690 N.3   201  GLY201     -0.1225
     94  CA       -16.6820   87.2740   76.8210 C.3   201  GLY201      0.1811
     95  C        -16.0330   88.3260   75.9490 C.2   201  GLY201      0.2280
     96  O        -16.7140   89.0270   75.2120 O.2   201  GLY201     -0.2866
     97  N        -14.2500   90.8130   77.2160 N.3   203  ILE203     -0.1245
     98  CA       -14.4420   92.0830   77.9210 C.3   203  ILE203      0.1561
     99  C        -13.7850   92.1020   79.3110 C.2   203  ILE203      0.2260
    100  O        -13.8570   91.1350   80.0770 O.2   203  ILE203     -0.2867
    101  CB       -15.9300   92.3420   78.1620 C.3   203  ILE203      0.0252
    102  CG1      -16.7070   92.3640   76.8480 C.3   203  ILE203      0.0019
    103  CG2      -16.1320   93.6630   78.8650 C.3   203  ILE203      0.0019
    104  CD1      -18.1480   92.0390   77.0010 C.3   203  ILE203      0.0001
@<TRIPOS>BOND
     1    51    50    2
     2    50    49    1
     3    52    49    1
     4    52    53    1
     5    49    48    1
     6    53    55   ar
     7    53    54   ar
     8    48    46   am
     9    55    57   ar
    10    42    41   ar
    11    54    56   ar
    12    43    41   ar
    13    57    58   ar
    14    41    40    1
    15    87    86    2
    16    46    47    2
    17    46    45    1
    18    44    45    1
    19    86    85    1
    20    56    58   ar
    21    58    59    1
    22     5     6    1
    23     5     2    1
    24     7     6   ar
    25     7     9   ar
    26     1     2    1
    27    38    39    2
    28    38    37    1
    29    40    37    1
    30    79    78    2
    31     6     8   ar
    32     2     3    1
    33     9    10   ar
    34    85    84    1
    35    85    88    1
    36    37    36    1
    37    78    77    1
    38    88    89    1
    39     8    10   ar
    40     3     4    2
    41    36    30   am
    42    80    77    1
    43    80    81    1
    44    77    76    1
    45    89    90    1
    46    90    91    1
    47    34    32    1
    48    72    71    2
    49    30    31    2
    50    30    29    1
    51    81    83   ar
    52    81    82   ar
    53    76    71   am
    54    71    70    1
    55    16    17    1
    56    16    15    1
    57    17    18    1
    58    29    32    1
    59    29    28    1
    60    91    92    1
    61    32    33    1
    62    11    12    1
    63    70    69    1
    64    70    73    1
    65    33    35    1
    66    15    12    1
    67    12    13    1
    68    63    62    2
    69    74    73    1
    70    73    75    1
    71    62    61    1
    72    13    14    2
    73    65    64    1
    74    65    66    1
    75    61    64    1
    76    61    60    1
    77    68    66   ar
    78    66    67   ar
    79    27    26    1
    80    19    20    1
    81    26    25    1
    82    96    95    2
    83    24    25    1
    84    24    23    1
    85    20    23    1
    86    20    21    1
    87    95    94    1
    88    94    93    1
    89    21    22    2
    90   102   104    1
    91   102   101    1
    92    97    98    1
    93    98   101    1
    94    98    99    1
    95   101   103    1
    96    99   100    2
