@<TRIPOS>MOLECULE
tmp/2fhjA01.pdb
 141 136 0 0 0
SMALL
GASTEIGER

@<TRIPOS>ATOM
      1  N        -41.1810   72.7670   60.5800 N.3    45  THR45      -0.1203
      2  CA       -40.3300   71.7050   60.0310 C.3    45  THR45       0.1994
      3  C        -40.8440   71.2330   58.6830 C.2    45  THR45       0.2619
      4  O        -40.0630   70.8980   57.7910 O.2    45  THR45      -0.2717
      5  CB       -40.2520   70.4820   60.9750 C.3    45  THR45       0.1784
      6  OG1      -41.5580   69.9340   61.1640 O.3    45  THR45      -0.2211
      7  CG2      -39.6600   70.8570   62.3300 C.3    45  THR45       0.0376
      8  N        -42.1630   71.2180   58.5450 N.am   46  SER46      -0.1937
      9  CA       -42.8110   70.6170   57.3940 C.3    46  SER46       0.2055
     10  C        -44.2450   71.0900   57.2810 C.2    46  SER46       0.2643
     11  O        -44.9620   71.1230   58.2680 O.2    46  SER46      -0.2714
     12  CB       -42.8060   69.1070   57.5400 C.3    46  SER46       0.2130
     13  OG       -43.9930   68.5570   57.0190 O.3    46  SER46      -0.2179
     14  N        -44.6620   71.4340   56.0670 N.am   47  VAL47      -0.1963
     15  CA       -46.0550   71.8290   55.8050 C.3    47  VAL47       0.1727
     16  C        -47.0800   70.6790   55.8310 C.2    47  VAL47       0.2616
     17  O        -48.2460   70.8950   55.5150 O.2    47  VAL47      -0.2715
     18  CB       -46.1970   72.5860   54.4620 C.3    47  VAL47       0.0290
     19  CG1      -45.4350   73.8870   54.5090 C.3    47  VAL47       0.0023
     20  CG2      -45.7490   71.7370   53.2880 C.3    47  VAL47       0.0023
     21  N        -46.6620   69.4670   56.1980 N.am   48  ILE48      -0.1963
     22  CA       -47.6080   68.3690   56.4170 C.3    48  ILE48       0.1727
     23  C        -48.5620   68.7610   57.5580 C.2    48  ILE48       0.2616
     24  O        -49.7780   68.6390   57.4430 O.2    48  ILE48      -0.2715
     25  CB       -46.8790   67.0420   56.7290 C.3    48  ILE48       0.0290
     26  CG1      -46.1430   66.5390   55.4830 C.3    48  ILE48       0.0022
     27  CG2      -47.8610   65.9770   57.2220 C.3    48  ILE48       0.0023
     28  CD1      -45.0360   65.5630   55.7830 C.3    48  ILE48       0.0001
     29  N        -48.0040   69.2650   58.6530 N.am   49  MET49      -0.1977
     30  CA       -48.8190   69.7590   59.7530 C.3    49  MET49       0.1605
     31  C        -48.1990   70.9410   60.5310 C.2    49  MET49       0.2287
     32  O        -48.6040   71.2240   61.6630 O.2    49  MET49      -0.2864
     33  CB       -49.1360   68.5950   60.6920 C.3    49  MET49       0.0413
     34  CG       -50.4850   67.9470   60.4540 C.3    49  MET49       0.0598
     35  SD       -50.6770   66.3690   61.2950 S.3    49  MET49      -0.1393
     36  CE       -49.4300   66.3230   62.5720 C.3    49  MET49       0.0692
     37  N        -42.3370   76.0440   56.5820 N.3    53  GLU53      -0.1245
     38  CA       -41.0280   75.4390   56.6730 C.3    53  GLU53       0.1567
     39  C        -40.0100   76.5650   56.8410 C.2    53  GLU53       0.2260
     40  O        -39.8010   77.3700   55.9340 O.2    53  GLU53      -0.2867
     41  CB       -40.7430   74.6080   55.4230 C.3    53  GLU53       0.0388
     42  CG       -41.4600   73.2830   55.4260 C.3    53  GLU53       0.1160
     43  CD       -41.4370   72.5600   54.0960 C.2    53  GLU53       0.3649
     44  OE1      -40.5580   72.8560   53.2650 O.co2  53  GLU53      -0.2457
     45  OE2      -42.3200   71.6930   53.8810 O.co2  53  GLU53      -0.2457
     46  N        -35.8490   70.8110   59.6550 N.3   200  PHE200     -0.1241
     47  CA       -36.1730   69.8670   60.7290 C.3   200  PHE200      0.1605
     48  C        -35.3480   70.1300   61.9940 C.2   200  PHE200      0.2264
     49  O        -34.3890   70.8960   61.9360 O.2   200  PHE200     -0.2867
     50  CB       -36.0730   68.4210   60.2030 C.3   200  PHE200      0.0534
     51  CG       -37.2230   68.0610   59.3030 C.ar  200  PHE200     -0.0203
     52  CD1      -37.1890   68.3630   57.9480 C.ar  200  PHE200     -0.0042
     53  CD2      -38.3670   67.5130   59.8310 C.ar  200  PHE200     -0.0042
     54  CE1      -38.2990   68.0720   57.1190 C.ar  200  PHE200     -0.0003
     55  CE2      -39.4490   67.2250   59.0320 C.ar  200  PHE200     -0.0003
     56  CZ       -39.4120   67.5070   57.6730 C.ar  200  PHE200     -0.0000
     57  N        -34.1580   64.7270   60.2660 N.3   205  VAL205     -0.1245
     58  CA       -35.4670   64.0700   60.3410 C.3   205  VAL205      0.1561
     59  C        -35.2790   62.6280   60.7950 C.2   205  VAL205      0.2260
     60  O        -34.6950   61.8210   60.0670 O.2   205  VAL205     -0.2867
     61  CB       -36.1820   63.9960   58.9720 C.3   205  VAL205      0.0252
     62  CG1      -37.6910   63.8430   59.1950 C.3   205  VAL205      0.0019
     63  CG2      -35.8690   65.1940   58.1090 C.3   205  VAL205      0.0019
     64  N        -37.7850   60.6870   61.4730 N.3   207  SER207     -0.1202
     65  CA       -39.0060   59.9900   61.1230 C.3   207  SER207      0.2020
     66  C        -39.4980   60.4170   59.7330 C.2   207  SER207      0.2619
     67  O        -40.5320   61.0450   59.6010 O.2   207  SER207     -0.2717
     68  CB       -40.0650   60.2680   62.1690 C.3   207  SER207      0.2103
     69  OG       -40.4010   61.6390   62.1380 O.3   207  SER207     -0.2182
     70  N        -38.7300   60.0420   58.7140 N.am  208  ALA208     -0.1965
     71  CA       -39.0570   60.3020   57.3300 C.3   208  ALA208      0.1728
     72  C        -40.3470   59.5850   56.9560 C.2   208  ALA208      0.2616
     73  O        -40.6690   58.5430   57.5360 O.2   208  ALA208     -0.2715
     74  CB       -37.9340   59.8490   56.4340 C.3   208  ALA208      0.0334
     75  N        -41.0670   60.1490   55.9850 N.am  209  SER209     -0.1950
     76  CA       -42.4150   59.7140   55.6390 C.3   209  SER209      0.1924
     77  C        -42.5760   59.3340   54.1730 C.2   209  SER209      0.2314
     78  O        -41.7590   59.7110   53.3300 O.2   209  SER209     -0.2863
     79  CB       -43.3990   60.8360   55.9370 C.3   209  SER209      0.2116
     80  OG       -43.1250   61.9720   55.1290 O.3   209  SER209     -0.2180
     81  N        -56.9510   55.3700   55.6690 N.3   217  ASP217     -0.1225
     82  CA       -57.4920   56.2130   54.5990 C.3   217  ASP217      0.1805
     83  C        -57.2860   57.7110   54.8610 C.2   217  ASP217      0.2598
     84  O        -57.0700   58.4860   53.9270 O.2   217  ASP217     -0.2718
     85  CB       -58.9880   55.9110   54.3810 C.3   217  ASP217      0.1424
     86  CG       -59.7160   55.5370   55.6700 C.2   217  ASP217      0.3668
     87  OD1      -59.4240   54.4540   56.2270 O.co2 217  ASP217     -0.2456
     88  OD2      -60.5860   56.3190   56.1170 O.co2 217  ASP217     -0.2456
     89  N        -57.3430   58.1010   56.1330 N.am  218  PHE218     -0.1962
     90  CA       -57.3580   59.5090   56.5470 C.3   218  PHE218      0.1771
     91  C        -56.0080   60.2180   56.6440 C.2   218  PHE218      0.2619
     92  O        -55.9740   61.4300   56.8300 O.2   218  PHE218     -0.2715
     93  CB       -58.0690   59.6190   57.9050 C.3   218  PHE218      0.0574
     94  CG       -57.4560   58.7690   58.9840 C.ar  218  PHE218     -0.0200
     95  CD1      -56.4090   59.2570   59.7590 C.ar  218  PHE218     -0.0042
     96  CD2      -57.9210   57.4770   59.2200 C.ar  218  PHE218     -0.0042
     97  CE1      -55.8320   58.4750   60.7570 C.ar  218  PHE218     -0.0003
     98  CE2      -57.3520   56.6840   60.2080 C.ar  218  PHE218     -0.0003
     99  CZ       -56.3040   57.1860   60.9850 C.ar  218  PHE218     -0.0000
    100  N        -54.9050   59.4840   56.5290 N.am  219  LEU219     -0.1964
    101  CA       -53.5730   60.0790   56.7010 C.3   219  LEU219      0.1713
    102  C        -52.9940   60.6260   55.3920 C.2   219  LEU219      0.2458
    103  O        -53.0410   59.9580   54.3560 O.2   219  LEU219     -0.2730
    104  CB       -52.5860   59.0720   57.3010 C.3   219  LEU219      0.0310
    105  CG       -52.8460   58.5730   58.7240 C.3   219  LEU219      0.0022
    106  CD1      -51.7430   57.6510   59.1640 C.3   219  LEU219      0.0001
    107  CD2      -52.9620   59.7060   59.6820 C.3   219  LEU219      0.0001
    108  N        -52.4240   61.8410   55.4460 N.am  220  PRO220     -0.2716
    109  CA       -51.7380   62.4400   54.3150 C.3   220  PRO220      0.1536
    110  C        -50.3510   61.8320   54.1040 C.2   220  PRO220      0.2598
    111  O        -49.8860   61.7510   52.9660 O.2   220  PRO220     -0.2715
    112  CB       -51.6040   63.9020   54.7390 C.3   220  PRO220      0.0310
    113  CG       -51.4750   63.8280   56.2140 C.3   220  PRO220      0.0237
    114  CD       -52.3940   62.7280   56.6200 C.3   220  PRO220      0.0939
    115  N        -49.7010   61.4230   55.1950 N.am  221  ALA221     -0.1964
    116  CA       -48.3770   60.8280   55.1440 C.3   221  ALA221      0.1728
    117  C        -48.2460   59.8440   56.2840 C.2   221  ALA221      0.2616
    118  O        -49.0310   59.8810   57.2310 O.2   221  ALA221     -0.2715
    119  CB       -47.3200   61.8970   55.2460 C.3   221  ALA221      0.0334
    120  N        -47.2680   58.9500   56.1900 N.am  222  SER222     -0.1950
    121  CA       -47.0270   57.9720   57.2470 C.3   222  SER222      0.1924
    122  C        -45.5790   57.5300   57.2150 C.2   222  SER222      0.2314
    123  O        -44.8480   57.8650   56.2930 O.2   222  SER222     -0.2863
    124  CB       -47.9480   56.7640   57.0780 C.3   222  SER222      0.2116
    125  OG       -47.6950   56.1080   55.8480 O.3   222  SER222     -0.2180
    126  N        -32.7500   61.2260   57.7110 N.3   245  GLU245     -0.1245
    127  CA       -32.8630   62.0420   56.5210 C.3   245  GLU245      0.1567
    128  C        -32.4800   63.4830   56.8350 C.2   245  GLU245      0.2260
    129  O        -32.9110   64.0250   57.8450 O.2   245  GLU245     -0.2867
    130  CB       -34.2950   61.9950   55.9660 C.3   245  GLU245      0.0388
    131  CG       -34.4080   62.5390   54.5730 C.3   245  GLU245      0.1160
    132  CD       -35.8450   62.5540   54.0480 C.2   245  GLU245      0.3649
    133  OE1      -36.7880   62.3130   54.8450 O.co2 245  GLU245     -0.2457
    134  OE2      -36.0300   62.8130   52.8370 O.co2 245  GLU245     -0.2457
    135  N        -33.1990   66.9910   55.1680 N.3   247  VAL247     -0.1245
    136  CA       -34.0010   67.6790   54.1590 C.3   247  VAL247      0.1561
    137  C        -33.5730   69.1360   54.0530 C.2   247  VAL247      0.2260
    138  O        -33.3700   69.8150   55.0710 O.2   247  VAL247     -0.2867
    139  CB       -35.4640   67.6010   54.5190 C.3   247  VAL247      0.0252
    140  CG1      -36.2850   68.3120   53.4910 C.3   247  VAL247      0.0019
    141  CG2      -35.8790   66.1440   54.6370 C.3   247  VAL247      0.0019
@<TRIPOS>BOND
     1   134   132   ar
     2   111   110    2
     3    44    43   ar
     4    20    18    1
     5    78    77    2
     6   140   139    1
     7    45    43   ar
     8    84    83    2
     9   132   131    1
    10   132   133   ar
    11   137   136    1
    12   137   138    2
    13    43    42    1
    14   110   109    1
    15   110   115   am
    16   136   139    1
    17   136   135    1
    18    77    76    1
    19   109   112    1
    20   109   108    1
    21   103   102    2
    22    85    82    1
    23    85    86    1
    24    18    19    1
    25    18    15    1
    26   139   141    1
    27   131   130    1
    28    82    83    1
    29    82    81    1
    30   112   113    1
    31    83    89   am
    32    80    79    1
    33   116   115    1
    34   116   119    1
    35   116   117    1
    36   102   108   am
    37   102   101    1
    38    41    42    1
    39    41    38    1
    40   108   114    1
    41    26    28    1
    42    26    25    1
    43    17    16    2
    44    76    79    1
    45    76    75    1
    46    86    88   ar
    47    86    87   ar
    48    15    16    1
    49    15    14    1
    50    16    21   am
    51   125   124    1
    52    40    39    2
    53   130   127    1
    54    75    72   am
    55    14    10   am
    56    89    90    1
    57   120   117   am
    58   120   121    1
    59    21    22    1
    60   113   114    1
    61   117   118    2
    62   123   122    2
    63    22    25    1
    64    22    23    1
    65    74    71    1
    66   127   128    1
    67   127   126    1
    68   100    91   am
    69   100   101    1
    70    90    91    1
    71    90    93    1
    72    37    38    1
    73    91    92    2
    74    38    39    1
    75   101   104    1
    76    25    27    1
    77   128   129    2
    78    72    71    1
    79    72    73    2
    80    13    12    1
    81   124   121    1
    82    54    56   ar
    83    54    52   ar
    84   122   121    1
    85    10     9    1
    86    10    11    2
    87   104   105    1
    88    71    70    1
    89     9    12    1
    90     9     8    1
    91    24    23    2
    92    23    29   am
    93    56    55   ar
    94     4     3    2
    95    93    94    1
    96    52    51   ar
    97    63    61    1
    98     8     3   am
    99    29    30    1
   100     3     2    1
   101    70    66   am
   102   105   106    1
   103   105   107    1
   104    61    62    1
   105    61    58    1
   106    94    96   ar
   107    94    95   ar
   108    55    53   ar
   109    96    98   ar
   110    51    53   ar
   111    51    50    1
   112    67    66    2
   113    46    47    1
   114    66    65    1
   115    30    31    1
   116    30    33    1
   117    95    97   ar
   118     2     1    1
   119     2     5    1
   120    60    59    2
   121    50    47    1
   122    98    99   ar
   123    57    58    1
   124    58    59    1
   125    34    33    1
   126    34    35    1
   127    31    32    2
   128    47    48    1
   129    97    99   ar
   130     5     6    1
   131     5     7    1
   132    65    64    1
   133    65    68    1
   134    35    36    1
   135    49    48    2
   136    69    68    1
