@<TRIPOS>MOLECULE
tmp/2fhjD03.pdb
 111 109 0 0 0
SMALL
GASTEIGER

@<TRIPOS>ATOM
      1  N        -13.0800   75.7350   74.4470 N.3    38  LYS38      -0.1245
      2  CA       -13.3630   76.4440   75.6960 C.3    38  LYS38       0.1561
      3  C        -12.4500   75.9850   76.8250 C.2    38  LYS38       0.2260
      4  O        -11.9590   76.8060   77.6150 O.2    38  LYS38      -0.2867
      5  CB       -14.8170   76.2560   76.1080 C.3    38  LYS38       0.0271
      6  CG       -15.7960   77.0010   75.2210 C.3    38  LYS38       0.0035
      7  CD       -15.8230   78.4870   75.5360 C.3    38  LYS38       0.0206
      8  CE       -16.6070   79.2640   74.4860 C.3    38  LYS38       0.1093
      9  NZ       -16.2090   80.7000   74.4180 N.3    38  LYS38      -0.1314
     10  N         -8.7650   77.1780   75.8940 N.3    41  THR41      -0.1203
     11  CA        -8.5510   78.6280   75.9250 C.3    41  THR41       0.1994
     12  C         -8.9530   79.3320   77.2330 C.2    41  THR41       0.2618
     13  O         -8.6320   80.5090   77.3970 O.2    41  THR41      -0.2717
     14  CB        -9.2640   79.3150   74.7650 C.3    41  THR41       0.1784
     15  OG1      -10.6690   79.0540   74.8470 O.3    41  THR41      -0.2211
     16  CG2       -8.7260   78.7940   73.4490 C.3    41  THR41       0.0376
     17  N         -9.6280   78.6320   78.1540 N.am   42  GLY42      -0.1956
     18  CA        -9.9800   79.1850   79.4740 C.3    42  GLY42       0.1869
     19  C         -8.7230   79.3650   80.3160 C.2    42  GLY42       0.2309
     20  O         -7.6550   78.9820   79.8740 O.2    42  GLY42      -0.2863
     21  N         -5.2770   83.4600   75.6550 N.3    54  ALA54      -0.1231
     22  CA        -5.7710   82.5140   74.6930 C.3    54  ALA54       0.1694
     23  C         -7.2020   82.8540   74.3610 C.2    54  ALA54       0.2593
     24  O         -7.9140   83.4790   75.1650 O.2    54  ALA54      -0.2718
     25  CB        -5.6950   81.1190   75.2570 C.3    54  ALA54       0.0304
     26  N         -7.6500   82.4420   73.1900 N.am   55  GLY55      -0.1942
     27  CA        -9.0200   82.7510   72.8210 C.3    55  GLY55       0.2014
     28  C         -9.3580   82.2080   71.4690 C.2    55  GLY55       0.2638
     29  O         -8.4800   81.7650   70.7350 O.2    55  GLY55      -0.2714
     30  N        -10.6380   82.2320   71.1420 N.am   56  ILE56      -0.1977
     31  CA       -11.0850   81.7350   69.8820 C.3    56  ILE56       0.1596
     32  C        -10.8170   82.7940   68.8430 C.2    56  ILE56       0.2287
     33  O        -11.1170   83.9710   69.0600 O.2    56  ILE56      -0.2864
     34  CB       -12.5860   81.4220   69.9000 C.3    56  ILE56       0.0276
     35  CG1      -12.8550   80.2610   70.8520 C.3    56  ILE56       0.0022
     36  CG2      -13.0600   81.0670   68.5070 C.3    56  ILE56       0.0022
     37  CD1      -14.1880   80.3770   71.6050 C.3    56  ILE56       0.0001
     38  N        -17.8140   92.8080   70.5700 N.3   186  VAL186     -0.1245
     39  CA       -17.1610   91.4980   70.5080 C.3   186  VAL186      0.1561
     40  C        -17.6900   90.6240   69.3790 C.2   186  VAL186      0.2260
     41  O        -16.9090   89.9640   68.6930 O.2   186  VAL186     -0.2867
     42  CB       -17.2230   90.7880   71.8690 C.3   186  VAL186      0.0252
     43  CG1      -16.7460   89.3750   71.7560 C.3   186  VAL186      0.0019
     44  CG2      -16.3670   91.5450   72.8600 C.3   186  VAL186      0.0019
     45  N        -15.7800   91.8010   66.5110 N.3   189  ILE189     -0.1231
     46  CA       -14.3970   91.3210   66.5960 C.3   189  ILE189      0.1692
     47  C        -14.2870   89.8130   66.2940 C.2   189  ILE189      0.2591
     48  O        -13.3140   89.3700   65.6820 O.2   189  ILE189     -0.2718
     49  CB       -13.8230   91.6250   67.9770 C.3   189  ILE189      0.0266
     50  CG1      -13.6920   93.1310   68.1510 C.3   189  ILE189      0.0019
     51  CG2      -12.4470   90.9590   68.1650 C.3   189  ILE189      0.0020
     52  CD1      -13.3220   93.5700   69.5700 C.3   189  ILE189      0.0001
     53  N        -15.2960   89.0390   66.7020 N.am  190  LYS190     -0.1980
     54  CA       -15.3650   87.6070   66.4060 C.3   190  LYS190      0.1596
     55  C        -15.0420   87.3500   64.9330 C.2   190  LYS190      0.2287
     56  O        -14.2070   86.4800   64.6220 O.2   190  LYS190     -0.2864
     57  CB       -16.7370   87.0100   66.7680 C.3   190  LYS190      0.0298
     58  CG       -16.9630   86.6760   68.2360 C.3   190  LYS190      0.0038
     59  CD       -18.3940   86.1260   68.4250 C.3   190  LYS190      0.0206
     60  CE       -18.7710   85.9150   69.8970 C.3   190  LYS190      0.1093
     61  NZ       -20.1500   85.3430   70.0630 N.3   190  LYS190     -0.1314
     62  N         -8.0990   87.9100   68.3960 N.3   196  TYR196     -0.1227
     63  CA        -8.9380   87.4110   69.4870 C.3   196  TYR196      0.1736
     64  C         -8.9630   88.3580   70.7050 C.2   196  TYR196      0.2595
     65  O         -8.0470   89.1430   70.9040 O.2   196  TYR196     -0.2718
     66  CB        -8.4970   85.9970   69.8790 C.3   196  TYR196      0.0548
     67  CG        -7.1700   85.9080   70.6040 C.ar  196  TYR196     -0.0200
     68  CD1       -7.1170   85.7130   71.9800 C.ar  196  TYR196     -0.0009
     69  CD2       -5.9750   86.0100   69.9160 C.ar  196  TYR196     -0.0009
     70  CE1       -5.8890   85.6380   72.6610 C.ar  196  TYR196      0.0417
     71  CE2       -4.7420   85.9140   70.5840 C.ar  196  TYR196      0.0417
     72  CZ        -4.7070   85.7220   71.9510 C.ar  196  TYR196      0.1957
     73  OH        -3.4810   85.6370   72.5970 O.3   196  TYR196     -0.2866
     74  N        -10.0400   88.2830   71.4920 N.am  197  ALA197     -0.1966
     75  CA       -10.1800   89.0510   72.7260 C.3   197  ALA197      0.1713
     76  C        -10.0950   88.0770   73.8950 C.2   197  ALA197      0.2458
     77  O        -11.0420   87.3550   74.1500 O.2   197  ALA197     -0.2730
     78  CB       -11.5030   89.7710   72.7230 C.3   197  ALA197      0.0333
     79  N         -8.9600   88.0370   74.6160 N.am  198  PRO198     -0.2716
     80  CA        -8.8070   86.9620   75.5850 C.3   198  PRO198      0.1536
     81  C         -9.6400   87.0230   76.8750 C.2   198  PRO198      0.2598
     82  O         -9.7810   85.9920   77.5160 O.2   198  PRO198     -0.2715
     83  CB        -7.3080   87.0140   75.9390 C.3   198  PRO198      0.0310
     84  CG        -6.9340   88.4070   75.7250 C.3   198  PRO198      0.0237
     85  CD        -7.7820   88.9150   74.5960 C.3   198  PRO198      0.0939
     86  N        -10.1700   88.1750   77.2690 N.am  199  PHE199     -0.1961
     87  CA       -10.9180   88.2850   78.5270 C.3   199  PHE199      0.1756
     88  C        -12.3090   87.6240   78.4710 C.2   199  PHE199      0.2461
     89  O        -12.7590   87.2530   77.3910 O.2   199  PHE199     -0.2730
     90  CB       -10.9840   89.7510   78.9610 C.3   199  PHE199      0.0574
     91  CG        -9.6710   90.2650   79.4880 C.ar  199  PHE199     -0.0200
     92  CD1       -8.7020   90.7310   78.6250 C.ar  199  PHE199     -0.0042
     93  CD2       -9.3940   90.2240   80.8420 C.ar  199  PHE199     -0.0042
     94  CE1       -7.4760   91.1840   79.1060 C.ar  199  PHE199     -0.0003
     95  CE2       -8.1640   90.6620   81.3290 C.ar  199  PHE199     -0.0003
     96  CZ        -7.2120   91.1470   80.4580 C.ar  199  PHE199     -0.0000
     97  N        -12.9630   87.4400   79.6390 N.am  200  PRO200     -0.2716
     98  CA       -14.2440   86.7330   79.6720 C.3   200  PRO200      0.1536
     99  C        -15.2840   87.4050   78.8080 C.2   200  PRO200      0.2599
    100  O        -15.7000   88.5240   79.0780 O.2   200  PRO200     -0.2715
    101  CB       -14.6430   86.7910   81.1470 C.3   200  PRO200      0.0310
    102  CG       -13.3300   86.9150   81.8800 C.3   200  PRO200      0.0237
    103  CD       -12.5520   87.8510   80.9960 C.3   200  PRO200      0.0939
    104  N        -15.7110   86.7080   77.7690 N.am  201  GLY201     -0.1941
    105  CA       -16.6820   87.2740   76.8210 C.3   201  GLY201      0.2014
    106  C        -16.0330   88.3260   75.9490 C.2   201  GLY201      0.2639
    107  O        -16.7140   89.0270   75.2120 O.2   201  GLY201     -0.2714
    108  N        -14.7030   88.4270   76.0300 N.am  202  GLY202     -0.1954
    109  CA       -13.9500   89.4000   75.2810 C.3   202  GLY202      0.1869
    110  C        -13.6700   90.6910   76.0180 C.2   202  GLY202      0.2309
    111  O        -12.9130   91.5410   75.5260 O.2   202  GLY202     -0.2863
@<TRIPOS>BOND
     1    56    55    2
     2    55    54    1
     3    48    47    2
     4    47    46    1
     5    47    53   am
     6    54    53    1
     7    54    57    1
     8    45    46    1
     9    46    49    1
    10    57    58    1
    11    49    50    1
    12    49    51    1
    13    50    52    1
    14    58    59    1
    15    62    63    1
    16    59    60    1
    17    36    34    1
    18    41    40    2
    19    32    33    2
    20    32    31    1
    21    40    39    1
    22    63    66    1
    23    63    64    1
    24    66    67    1
    25    31    34    1
    26    31    30    1
    27    60    61    1
    28    34    35    1
    29    69    71   ar
    30    69    67   ar
    31    39    38    1
    32    39    42    1
    33    71    72   ar
    34    67    68   ar
    35    64    65    2
    36    64    74   am
    37    29    28    2
    38    35    37    1
    39    30    28   am
    40    28    27    1
    41    74    75    1
    42    43    42    1
    43    42    44    1
    44    72    73    1
    45    72    70   ar
    46    68    70   ar
    47    78    75    1
    48    75    76    1
    49    27    26    1
    50    26    23   am
    51    16    14    1
    52    76    77    2
    53    76    79   am
    54    23    22    1
    55    23    24    2
    56     9     8    1
    57     1     2    1
    58     8     7    1
    59    85    79    1
    60    85    84    1
    61    79    80    1
    62    22    25    1
    63    22    21    1
    64    14    15    1
    65    14    11    1
    66   107   106    2
    67     6     7    1
    68     6     5    1
    69   109   110    1
    70   109   108    1
    71   111   110    2
    72    80    83    1
    73    80    81    1
    74     2     5    1
    75     2     3    1
    76    84    83    1
    77    10    11    1
    78    11    12    1
    79   106   108   am
    80   106   105    1
    81   105   104    1
    82     3     4    2
    83    81    86   am
    84    81    82    2
    85    12    13    2
    86    12    17   am
    87    86    87    1
    88    89    88    2
    89   104    99   am
    90    17    18    1
    91    88    87    1
    92    88    97   am
    93    87    90    1
    94    92    94   ar
    95    92    91   ar
    96    99   100    2
    97    99    98    1
    98    90    91    1
    99    94    96   ar
   100    18    19    1
   101    91    93   ar
   102    97    98    1
   103    97   103    1
   104    98   101    1
   105    20    19    2
   106    96    95   ar
   107    93    95   ar
   108   103   102    1
   109   101   102    1
