@<TRIPOS>MOLECULE
tmp/2fhjA00.pdb
 87 85 0 0 0
SMALL
GASTEIGER

@<TRIPOS>ATOM
      1  N        -46.1480   87.6270   58.1090 N.3    90  LEU90      -0.1245
      2  CA       -46.8260   88.5180   59.0320 C.3    90  LEU90       0.1561
      3  C        -46.8390   87.9520   60.4420 C.2    90  LEU90       0.2260
      4  O        -46.4560   88.6320   61.3890 O.2    90  LEU90      -0.2867
      5  CB       -48.2700   88.7590   58.5840 C.3    90  LEU90       0.0270
      6  CG       -48.9870   89.8760   59.3530 C.3    90  LEU90       0.0019
      7  CD1      -48.5580   91.2580   58.8170 C.3    90  LEU90       0.0001
      8  CD2      -50.5030   89.6930   59.2750 C.3    90  LEU90       0.0001
      9  N        -44.4500   89.4930   63.0620 N.3    94  GLY94      -0.1210
     10  CA       -45.3510   90.2110   63.9470 C.3    94  GLY94       0.1956
     11  C        -45.3780   89.6930   65.3690 C.2    94  GLY94       0.2611
     12  O        -45.3740   90.4860   66.3090 O.2    94  GLY94      -0.2717
     13  N        -45.4000   88.3710   65.5390 N.am   95  GLN95      -0.1979
     14  CA       -45.5330   87.7680   66.8710 C.3    95  GLN95       0.1601
     15  C        -44.2040   87.4050   67.5390 C.2    95  GLN95       0.2287
     16  O        -44.1300   87.3610   68.7580 O.2    95  GLN95      -0.2864
     17  CB       -46.4010   86.5150   66.8120 C.3    95  GLN95       0.0394
     18  CG       -47.7740   86.7160   66.2040 C.3    95  GLN95       0.0908
     19  CD       -48.6440   87.5730   67.0600 C.2    95  GLN95       0.2608
     20  OE1      -49.1720   87.1360   68.0810 O.2    95  GLN95      -0.2717
     21  NE2      -48.8100   88.8080   66.6490 N.am   95  GLN95      -0.0878
     22  N        -41.1740   91.0590   66.2940 N.3    98  MET98      -0.1230
     23  CA       -41.5950   92.3420   66.8350 C.3    98  MET98       0.1702
     24  C        -41.5160   92.3460   68.3600 C.2    98  MET98       0.2593
     25  O        -41.1300   93.3470   68.9550 O.2    98  MET98      -0.2718
     26  CB       -42.9980   92.7360   66.3950 C.3    98  MET98       0.0401
     27  CG       -43.3650   94.1240   66.9040 C.3    98  MET98       0.0596
     28  SD       -44.6920   94.9030   65.9900 S.3    98  MET98      -0.1393
     29  CE       -46.0220   93.8930   66.5690 C.3    98  MET98       0.0692
     30  N        -41.8720   91.2210   68.9720 N.am   99  THR99      -0.1953
     31  CA       -41.9570   91.1020   70.4200 C.3    99  THR99       0.1897
     32  C        -40.6280   90.7440   71.0560 C.2    99  THR99       0.2313
     33  O        -40.5330   90.7320   72.2740 O.2    99  THR99      -0.2863
     34  CB       -42.9510   89.9960   70.8330 C.3    99  THR99       0.1794
     35  OG1      -42.4590   88.7160   70.4200 O.3    99  THR99      -0.2208
     36  CG2      -44.3280   90.2270   70.2060 C.3    99  THR99       0.0378
     37  N        -45.2000   97.3880   56.1920 N.3   122  TYR122     -0.1227
     38  CA       -46.3780   98.2310   56.0630 C.3   122  TYR122      0.1736
     39  C        -47.5910   97.6110   56.7650 C.2   122  TYR122      0.2595
     40  O        -48.2600   98.2700   57.5640 O.2   122  TYR122     -0.2718
     41  CB       -46.6670   98.4880   54.5840 C.3   122  TYR122      0.0548
     42  CG       -47.9580   99.2200   54.3150 C.ar  122  TYR122     -0.0200
     43  CD1      -48.0700  100.5760   54.5640 C.ar  122  TYR122     -0.0009
     44  CD2      -49.0660   98.5580   53.8020 C.ar  122  TYR122     -0.0009
     45  CE1      -49.2380  101.2600   54.3080 C.ar  122  TYR122      0.0417
     46  CE2      -50.2470   99.2380   53.5520 C.ar  122  TYR122      0.0417
     47  CZ       -50.3140  100.5880   53.8130 C.ar  122  TYR122      0.1957
     48  OH       -51.4510  101.2970   53.5790 O.3   122  TYR122     -0.2866
     49  N        -47.8660   96.3430   56.4940 N.am  123  LYS123     -0.1966
     50  CA       -48.9990   95.6840   57.1360 C.3   123  LYS123      0.1728
     51  C        -48.7960   95.6260   58.6510 C.2   123  LYS123      0.2616
     52  O        -49.7500   95.7500   59.4090 O.2   123  LYS123     -0.2715
     53  CB       -49.2070   94.2800   56.5740 C.3   123  LYS123      0.0311
     54  CG       -49.6580   94.2320   55.1170 C.3   123  LYS123      0.0038
     55  CD       -49.5320   92.8220   54.5530 C.3   123  LYS123      0.0206
     56  CE       -50.0810   92.7210   53.1390 C.3   123  LYS123      0.1093
     57  NZ       -50.1750   91.3000   52.6600 N.3   123  LYS123     -0.1314
     58  N        -47.5500   95.4370   59.0860 N.am  124  LEU124     -0.1977
     59  CA       -47.2310   95.3970   60.5140 C.3   124  LEU124      0.1596
     60  C        -47.2770   96.7800   61.1420 C.2   124  LEU124      0.2287
     61  O        -47.4830   96.8980   62.3460 O.2   124  LEU124     -0.2864
     62  CB       -45.8330   94.7990   60.7590 C.3   124  LEU124      0.0297
     63  CG       -45.6060   93.2900   60.5800 C.3   124  LEU124      0.0022
     64  CD1      -44.1420   92.9360   60.8670 C.3   124  LEU124      0.0001
     65  CD2      -46.5250   92.4760   61.4810 C.3   124  LEU124      0.0001
     66  N        -49.3930   99.1370   61.1410 N.3   126  PHE126     -0.1227
     67  CA       -50.6830   99.5370   61.7200 C.3   126  PHE126      0.1736
     68  C        -50.8200   99.2280   63.2030 C.2   126  PHE126      0.2595
     69  O        -51.6750   99.8030   63.8710 O.2   126  PHE126     -0.2718
     70  CB       -51.8260   98.8910   60.9390 C.3   126  PHE126      0.0547
     71  CG       -51.9000   99.3520   59.5260 C.ar  126  PHE126     -0.0202
     72  CD1      -51.3870   98.5770   58.4980 C.ar  126  PHE126     -0.0042
     73  CD2      -52.4490  100.5910   59.2260 C.ar  126  PHE126     -0.0042
     74  CE1      -51.4390   99.0240   57.1950 C.ar  126  PHE126     -0.0003
     75  CE2      -52.5040  101.0480   57.9380 C.ar  126  PHE126     -0.0003
     76  CZ       -52.0020  100.2700   56.9160 C.ar  126  PHE126     -0.0000
     77  N        -49.9750   98.3280   63.7000 N.am  127  PHE127     -0.1976
     78  CA       -49.8250   98.0500   65.1290 C.3   127  PHE127      0.1639
     79  C        -49.5060   99.3420   65.9250 C.2   127  PHE127      0.2290
     80  O        -49.9180   99.4840   67.0840 O.2   127  PHE127     -0.2864
     81  CB       -48.7090   97.0040   65.2950 C.3   127  PHE127      0.0560
     82  CG       -48.4700   96.5570   66.7090 C.ar  127  PHE127     -0.0200
     83  CD1      -47.3920   97.0380   67.4320 C.ar  127  PHE127     -0.0042
     84  CD2      -49.2890   95.6190   67.2960 C.ar  127  PHE127     -0.0042
     85  CE1      -47.1550   96.6060   68.7200 C.ar  127  PHE127     -0.0003
     86  CE2      -49.0640   95.1910   68.5810 C.ar  127  PHE127     -0.0003
     87  CZ       -47.9950   95.6790   69.2930 C.ar  127  PHE127     -0.0000
@<TRIPOS>BOND
     1    57    56    1
     2    56    55    1
     3    46    44   ar
     4    46    47   ar
     5    48    47    1
     6    44    42   ar
     7    47    45   ar
     8    45    43   ar
     9    42    43   ar
    10    42    41    1
    11    55    54    1
    12    41    38    1
    13    54    53    1
    14    38    37    1
    15    38    39    1
    16    49    39   am
    17    49    50    1
    18    53    50    1
    19    39    40    2
    20    76    74   ar
    21    76    75   ar
    22    50    51    1
    23    74    72   ar
    24    75    73   ar
    25     1     2    1
    26    72    71   ar
    27     5     2    1
    28     5     6    1
    29    51    58   am
    30    51    52    2
    31     7     6    1
    32     2     3    1
    33    58    59    1
    34    73    71   ar
    35     8     6    1
    36    71    70    1
    37     3     4    2
    38    59    62    1
    39    59    60    1
    40    63    62    1
    41    63    64    1
    42    63    65    1
    43    70    67    1
    44    66    67    1
    45    60    61    2
    46    67    68    1
    47     9    10    1
    48    68    77   am
    49    68    69    2
    50    77    78    1
    51    10    11    1
    52    78    81    1
    53    78    79    1
    54    81    82    1
    55    11    13   am
    56    11    12    2
    57    13    14    1
    58    79    80    2
    59    28    29    1
    60    28    27    1
    61    18    17    1
    62    18    19    1
    63    22    23    1
    64    26    23    1
    65    26    27    1
    66    21    19   am
    67    82    84   ar
    68    82    83   ar
    69    17    14    1
    70    23    24    1
    71    14    15    1
    72    19    20    2
    73    84    86   ar
    74    83    85   ar
    75    15    16    2
    76    24    25    2
    77    24    30   am
    78    86    87   ar
    79    85    87   ar
    80    30    31    1
    81    36    34    1
    82    31    34    1
    83    31    32    1
    84    35    34    1
    85    32    33    2
