@<TRIPOS>MOLECULE
tmp/2fhjC02.pdb
 141 133 0 0 0
SMALL
GASTEIGER

@<TRIPOS>ATOM
      1  N         -8.6970   59.5810   95.5880 N.3    16  PHE16      -0.1241
      2  CA        -7.7000   60.1700   96.4680 C.3    16  PHE16       0.1605
      3  C         -8.2190   61.3740   97.2320 C.2    16  PHE16       0.2264
      4  O         -9.1300   62.0630   96.7860 O.2    16  PHE16      -0.2867
      5  CB        -6.4830   60.5910   95.6520 C.3    16  PHE16       0.0534
      6  CG        -5.8650   59.4670   94.8750 C.ar   16  PHE16      -0.0203
      7  CD1       -6.2950   59.1770   93.5910 C.ar   16  PHE16      -0.0042
      8  CD2       -4.8490   58.6900   95.4360 C.ar   16  PHE16      -0.0042
      9  CE1       -5.7360   58.1380   92.8760 C.ar   16  PHE16      -0.0003
     10  CE2       -4.2900   57.6390   94.7260 C.ar   16  PHE16      -0.0003
     11  CZ        -4.7260   57.3620   93.4470 C.ar   16  PHE16      -0.0000
     12  N         -6.7650   68.3080   84.6200 N.3    46  SER46      -0.1202
     13  CA        -5.9460   67.3740   85.3710 C.3    46  SER46       0.2020
     14  C         -4.7430   68.1370   85.8900 C.2    46  SER46       0.2619
     15  O         -4.2570   69.0080   85.1930 O.2    46  SER46      -0.2717
     16  CB        -5.4810   66.2560   84.4370 C.3    46  SER46       0.2103
     17  OG        -4.2930   65.6100   84.8980 O.3    46  SER46      -0.2182
     18  N         -4.2740   67.8140   87.0950 N.am   47  VAL47      -0.1965
     19  CA        -3.0510   68.4250   87.6510 C.3    47  VAL47       0.1727
     20  C         -1.7590   67.8300   87.0660 C.2    47  VAL47       0.2616
     21  O         -0.6480   68.2490   87.4200 O.2    47  VAL47      -0.2715
     22  CB        -3.0070   68.3520   89.2090 C.3    47  VAL47       0.0290
     23  CG1       -4.1690   69.1410   89.8230 C.3    47  VAL47       0.0023
     24  CG2       -3.0150   66.9000   89.7150 C.3    47  VAL47       0.0023
     25  N         -1.8930   66.8510   86.1740 N.am   48  ILE48      -0.1977
     26  CA        -0.7470   66.3370   85.4280 C.3    48  ILE48       0.1596
     27  C         -0.0180   67.4790   84.6920 C.2    48  ILE48       0.2287
     28  O          1.1750   67.6940   84.9200 O.2    48  ILE48      -0.2864
     29  CB        -1.1710   65.2000   84.4550 C.3    48  ILE48       0.0276
     30  CG1       -1.5850   63.9620   85.2550 C.3    48  ILE48       0.0022
     31  CG2       -0.0530   64.8400   83.4950 C.3    48  ILE48       0.0022
     32  CD1       -2.1570   62.8210   84.4190 C.3    48  ILE48       0.0001
     33  N         -7.6450   71.3410   88.8130 N.3    53  GLU53      -0.1245
     34  CA        -8.7870   70.5820   88.2980 C.3    53  GLU53       0.1567
     35  C        -10.0230   71.3300   88.7340 C.2    53  GLU53       0.2260
     36  O        -10.2470   71.4930   89.9290 O.2    53  GLU53      -0.2867
     37  CB        -8.8150   69.1540   88.8630 C.3    53  GLU53       0.0388
     38  CG        -7.5440   68.3870   88.5830 C.3    53  GLU53       0.1160
     39  CD        -7.5370   66.9540   89.0990 C.2    53  GLU53       0.3649
     40  OE1       -8.5290   66.5160   89.7280 O.co2  53  GLU53      -0.2457
     41  OE2       -6.5240   66.2590   88.8570 O.co2  53  GLU53      -0.2457
     42  N        -10.6300   61.7820   91.6100 N.3   166  GLY166     -0.1225
     43  CA       -10.2870   60.5710   90.8670 C.3   166  GLY166      0.1811
     44  C        -11.3470   59.4940   90.8130 C.2   166  GLY166      0.2280
     45  O        -11.1080   58.4340   90.2670 O.2   166  GLY166     -0.2866
     46  N        -14.0440   57.4120   89.1840 N.3   168  ASN168     -0.1240
     47  CA       -14.1130   57.1910   87.7510 C.3   168  ASN168      0.1653
     48  C        -14.8650   55.9590   87.3560 C.2   168  ASN168      0.2266
     49  O        -15.0880   55.0500   88.1450 O.2   168  ASN168     -0.2867
     50  CB       -12.7120   57.0770   87.1510 C.3   168  ASN168      0.1155
     51  CG       -12.0210   55.7990   87.5440 C.2   168  ASN168      0.2627
     52  OD1      -12.3540   54.7350   87.0340 O.2   168  ASN168     -0.2716
     53  ND2      -11.0430   55.8900   88.4310 N.am  168  ASN168     -0.0877
     54  N        -15.2140   53.6610   83.3140 N.3   170  TYR170     -0.1241
     55  CA       -14.9790   53.5780   81.8950 C.3   170  TYR170      0.1605
     56  C        -16.2490   53.1010   81.2250 C.2   170  TYR170      0.2264
     57  O        -16.9010   52.2180   81.7490 O.2   170  TYR170     -0.2867
     58  CB       -13.9300   52.5450   81.6100 C.3   170  TYR170      0.0534
     59  CG       -12.5280   52.9720   81.9530 C.ar  170  TYR170     -0.0201
     60  CD1      -11.9240   52.5430   83.1080 C.ar  170  TYR170     -0.0009
     61  CD2      -11.8080   53.7790   81.1020 C.ar  170  TYR170     -0.0009
     62  CE1      -10.6110   52.9120   83.4120 C.ar  170  TYR170      0.0417
     63  CE2      -10.4930   54.1530   81.3980 C.ar  170  TYR170      0.0417
     64  CZ        -9.9100   53.7140   82.5480 C.ar  170  TYR170      0.1957
     65  OH        -8.6050   54.0860   82.8420 O.3   170  TYR170     -0.2866
     66  N        -12.8610   67.0920   83.0630 N.3   200  PHE200     -0.1241
     67  CA       -12.3970   66.9590   81.6790 C.3   200  PHE200      0.1605
     68  C        -13.3710   67.5910   80.6550 C.2   200  PHE200      0.2264
     69  O        -14.5070   67.9110   80.9960 O.2   200  PHE200     -0.2867
     70  CB       -12.0870   65.4840   81.3570 C.3   200  PHE200      0.0534
     71  CG       -10.8200   64.9910   82.0050 C.ar  200  PHE200     -0.0203
     72  CD1      -10.8340   64.5140   83.2980 C.ar  200  PHE200     -0.0042
     73  CD2       -9.6140   65.0460   81.3290 C.ar  200  PHE200     -0.0042
     74  CE1       -9.6630   64.0880   83.9190 C.ar  200  PHE200     -0.0003
     75  CE2       -8.4410   64.6270   81.9360 C.ar  200  PHE200     -0.0003
     76  CZ        -8.4640   64.1430   83.2360 C.ar  200  PHE200     -0.0000
     77  N         -5.2440   57.7100   80.9890 N.3   209  SER209     -0.1202
     78  CA        -3.8090   57.5320   81.2450 C.3   209  SER209      0.2020
     79  C         -3.5080   56.5500   82.3670 C.2   209  SER209      0.2619
     80  O         -4.3800   56.1920   83.1720 O.2   209  SER209     -0.2717
     81  CB        -3.1380   58.8730   81.6150 C.3   209  SER209      0.2103
     82  OG        -3.6090   59.4220   82.8540 O.3   209  SER209     -0.2182
     83  N         -2.2310   56.1750   82.4430 N.am  210  LYS210     -0.1965
     84  CA        -1.7240   55.3190   83.4880 C.3   210  LYS210      0.1728
     85  C         -0.4940   55.9820   84.1480 C.2   210  LYS210      0.2616
     86  O          0.1170   56.8960   83.5930 O.2   210  LYS210     -0.2715
     87  CB        -1.3540   53.9600   82.8920 C.3   210  LYS210      0.0311
     88  CG        -0.0110   53.9180   82.1230 C.3   210  LYS210      0.0038
     89  CD         0.1230   52.6290   81.2860 C.3   210  LYS210      0.0206
     90  CE         1.4150   52.5840   80.4550 C.3   210  LYS210      0.1093
     91  NZ         1.3170   53.3230   79.1410 N.3   210  LYS210     -0.1314
     92  N         -0.1580   55.5420   85.3540 N.am  211  VAL211     -0.1977
     93  CA         1.0060   56.0710   86.0460 C.3   211  VAL211      0.1596
     94  C          2.2140   55.7490   85.1960 C.2   211  VAL211      0.2287
     95  O          2.3380   54.6420   84.6880 O.2   211  VAL211     -0.2864
     96  CB         1.1330   55.4640   87.4550 C.3   211  VAL211      0.0276
     97  CG1        2.5430   55.6520   88.0270 C.3   211  VAL211      0.0022
     98  CG2        0.0860   56.0910   88.3720 C.3   211  VAL211      0.0022
     99  N          5.3320   61.3860   83.7350 N.3   220  PRO220     -0.2102
    100  CA         4.6020   60.9780   84.9330 C.3   220  PRO220      0.1504
    101  C          3.2420   60.3450   84.6140 C.2   220  PRO220      0.2575
    102  O          2.5810   59.8380   85.5180 O.2   220  PRO220     -0.2718
    103  CB         4.3970   62.2970   85.6720 C.3   220  PRO220      0.0282
    104  CG         4.2780   63.3230   84.5650 C.3   220  PRO220      0.0208
    105  CD         5.0460   62.7930   83.3790 C.3   220  PRO220      0.0893
    106  N          2.8260   60.4050   83.3480 N.am  221  ALA221     -0.1980
    107  CA         1.6280   59.7090   82.8740 C.3   221  ALA221      0.1597
    108  C          1.7830   59.4060   81.4000 C.2   221  ALA221      0.2287
    109  O          2.5140   60.0980   80.6920 O.2   221  ALA221     -0.2864
    110  CB         0.3800   60.5540   83.0960 C.3   221  ALA221      0.0319
    111  N        -13.4820   57.4250   79.5260 N.3   245  GLU245     -0.1245
    112  CA       -13.4830   57.4890   80.9750 C.3   245  GLU245      0.1567
    113  C        -14.2240   58.7450   81.4040 C.2   245  GLU245      0.2260
    114  O        -14.0630   59.7980   80.8210 O.2   245  GLU245     -0.2867
    115  CB       -12.0580   57.5090   81.5310 C.3   245  GLU245      0.0388
    116  CG       -12.0120   57.2030   82.9960 C.3   245  GLU245      0.1160
    117  CD       -10.6500   57.3090   83.5850 C.2   245  GLU245      0.3649
    118  OE1       -9.7020   57.7360   82.8860 O.co2 245  GLU245     -0.2457
    119  OE2      -10.5380   56.9440   84.7650 O.co2 245  GLU245     -0.2457
    120  N        -14.2250   61.0320   84.6970 N.3   247  VAL247     -0.1245
    121  CA       -13.5390   61.2620   85.9850 C.3   247  VAL247      0.1561
    122  C        -14.2590   62.2930   86.8490 C.2   247  VAL247      0.2260
    123  O        -14.5860   63.3700   86.3910 O.2   247  VAL247     -0.2867
    124  CB       -12.1030   61.6910   85.7720 C.3   247  VAL247      0.0252
    125  CG1      -11.4490   62.0150   87.0960 C.3   247  VAL247      0.0019
    126  CG2      -11.3730   60.5980   85.0710 C.3   247  VAL247      0.0019
    127  N        -11.1100   52.3200   86.9230 N.3   279  GLY279     -0.1225
    128  CA        -9.6590   52.3060   87.0280 C.3   279  GLY279      0.1811
    129  C         -9.2200   52.3870   88.4750 C.2   279  GLY279      0.2280
    130  O         -9.8020   53.1150   89.2810 O.2   279  GLY279     -0.2866
    131  N         -5.4530   51.3800   91.1550 N.3   281  PHE281     -0.1241
    132  CA        -4.0170   51.1050   91.1990 C.3   281  PHE281      0.1605
    133  C         -3.7330   49.9260   92.1370 C.2   281  PHE281      0.2264
    134  O         -2.7050   49.8920   92.8000 O.2   281  PHE281     -0.2867
    135  CB        -3.2600   52.3800   91.6120 C.3   281  PHE281      0.0534
    136  CG        -3.5720   53.5680   90.7320 C.ar  281  PHE281     -0.0203
    137  CD1       -4.6130   54.4290   91.0560 C.ar  281  PHE281     -0.0042
    138  CD2       -2.8620   53.7910   89.5570 C.ar  281  PHE281     -0.0042
    139  CE1       -4.9290   55.5020   90.2470 C.ar  281  PHE281     -0.0003
    140  CE2       -3.1740   54.8680   88.7360 C.ar  281  PHE281     -0.0003
    141  CZ        -4.2110   55.7250   89.0900 C.ar  281  PHE281     -0.0000
@<TRIPOS>BOND
     1    91    90    1
     2   111   112    1
     3    90    89    1
     4    68    69    2
     5    68    67    1
     6   109   108    2
     7   114   113    2
     8   112   113    1
     9   112   115    1
    10    77    78    1
    11    61    63   ar
    12    61    59   ar
    13    56    57    2
    14    56    55    1
    15    78    81    1
    16    78    79    1
    17    89    88    1
    18    73    75   ar
    19    73    71   ar
    20    70    67    1
    21    70    71    1
    22    63    64   ar
    23   108   107    1
    24   115   116    1
    25    58    55    1
    26    58    59    1
    27    81    82    1
    28    67    66    1
    29    55    54    1
    30    75    76   ar
    31    59    60   ar
    32    71    72   ar
    33    88    87    1
    34    79    83   am
    35    79    80    2
    36    83    84    1
    37    64    65    1
    38    64    62   ar
    39   107   110    1
    40   107   106    1
    41   118   117   ar
    42    87    84    1
    43   116   117    1
    44    60    62   ar
    45    76    74   ar
    46    72    74   ar
    47   106   101   am
    48   105    99    1
    49   105   104    1
    50    84    85    1
    51    31    29    1
    52   117   119   ar
    53    86    85    2
    54    99   100    1
    55    85    92   am
    56    32    30    1
    57    16    17    1
    58    16    13    1
    59    29    30    1
    60    29    26    1
    61   104   103    1
    62   101   100    1
    63   101   102    2
    64    12    13    1
    65    95    94    2
    66    27    28    2
    67    27    26    1
    68   120   121    1
    69   100   103    1
    70   126   124    1
    71    15    14    2
    72    94    93    1
    73    92    93    1
    74    13    14    1
    75    26    25    1
    76   124   121    1
    77   124   125    1
    78    14    18   am
    79   121   122    1
    80    93    96    1
    81    25    20   am
    82   123   122    2
    83   127   128    1
    84   128   129    1
    85    52    51    2
    86    20    21    2
    87    20    19    1
    88    18    19    1
    89    50    51    1
    90    50    47    1
    91    48    47    1
    92    48    49    2
    93    96    97    1
    94    96    98    1
    95    51    53   am
    96    19    22    1
    97    47    46    1
    98    34    35    1
    99    34    33    1
   100    34    37    1
   101   129   130    2
   102    38    37    1
   103    38    39    1
   104    35    36    2
   105   140   141   ar
   106   140   138   ar
   107    41    39   ar
   108   141   139   ar
   109    39    40   ar
   110    22    24    1
   111    22    23    1
   112   138   136   ar
   113   139   137   ar
   114    45    44    2
   115   136   137   ar
   116   136   135    1
   117    44    43    1
   118    43    42    1
   119   131   132    1
   120   132   135    1
   121   132   133    1
   122   133   134    2
   123     9    11   ar
   124     9     7   ar
   125    11    10   ar
   126     7     6   ar
   127    10     8   ar
   128     6     8   ar
   129     6     5    1
   130     1     2    1
   131     5     2    1
   132     2     3    1
   133     4     3    2
