@<TRIPOS>MOLECULE
tmp/2fhkC00.pdb
 87 85 0 0 0
SMALL
GASTEIGER

@<TRIPOS>ATOM
      1  N        -12.8590   82.4940   48.7040 N.3    90  LEU90      -0.1245
      2  CA       -13.2210   83.8880   48.9110 C.3    90  LEU90       0.1561
      3  C        -13.3080   84.2470   50.3890 C.2    90  LEU90       0.2260
      4  O        -12.7800   85.2760   50.8060 O.2    90  LEU90      -0.2867
      5  CB       -14.5390   84.2180   48.2100 C.3    90  LEU90       0.0270
      6  CG       -14.9530   85.6850   48.2810 C.3    90  LEU90       0.0019
      7  CD1      -14.1640   86.5130   47.2810 C.3    90  LEU90       0.0001
      8  CD2      -16.4550   85.8210   48.0610 C.3    90  LEU90       0.0001
      9  N        -10.3860   86.3260   52.0520 N.3    94  GLY94      -0.1210
     10  CA       -10.9720   87.6300   52.3940 C.3    94  GLY94       0.1956
     11  C        -11.0530   87.9800   53.8770 C.2    94  GLY94       0.2611
     12  O        -10.9410   89.1500   54.2600 O.2    94  GLY94      -0.2717
     13  N        -11.2600   86.9670   54.7120 N.am   95  GLN95      -0.1979
     14  CA       -11.4980   87.1830   56.1330 C.3    95  GLN95       0.1601
     15  C        -10.3130   86.8180   57.0180 C.2    95  GLN95       0.2287
     16  O        -10.2140   87.3070   58.1400 O.2    95  GLN95      -0.2864
     17  CB       -12.7270   86.3980   56.5970 C.3    95  GLN95       0.0394
     18  CG       -14.0480   86.9180   56.0720 C.3    95  GLN95       0.0908
     19  CD       -14.4880   88.2150   56.7360 C.2    95  GLN95       0.2608
     20  OE1      -13.9210   88.6400   57.7410 O.2    95  GLN95      -0.2717
     21  NE2      -15.5060   88.8460   56.1740 N.am   95  GLN95      -0.0878
     22  N         -6.6110   88.5190   54.1300 N.3    98  MET98      -0.1230
     23  CA        -6.6990   89.9560   53.8860 C.3    98  MET98       0.1702
     24  C         -6.5470   90.7370   55.1970 C.2    98  MET98       0.2593
     25  O         -5.8570   91.7620   55.2350 O.2    98  MET98      -0.2718
     26  CB        -7.9900   90.3450   53.1660 C.3    98  MET98       0.0401
     27  CG        -8.0810   91.8430   52.8710 C.3    98  MET98       0.0596
     28  SD        -9.2140   92.2470   51.5200 S.3    98  MET98      -0.1393
     29  CE       -10.7750   92.1710   52.3810 C.3    98  MET98       0.0692
     30  N         -7.1370   90.1970   56.2660 N.am   99  THR99      -0.1953
     31  CA        -7.1680   90.8160   57.5940 C.3    99  THR99       0.1897
     32  C         -5.8910   90.6030   58.4160 C.2    99  THR99       0.2313
     33  O         -5.6360   91.3340   59.3780 O.2    99  THR99      -0.2863
     34  CB        -8.3220   90.2440   58.4220 C.3    99  THR99       0.1794
     35  OG1       -8.1950   88.8180   58.4820 O.3    99  THR99      -0.2208
     36  CG2       -9.6900   90.6260   57.8250 C.3    99  THR99       0.0378
     37  N         -9.7810   89.2670   41.9520 N.3   122  TYR122     -0.1227
     38  CA       -10.6880   90.1730   41.2500 C.3   122  TYR122      0.1736
     39  C        -11.9240   90.4490   42.0990 C.2   122  TYR122      0.2595
     40  O        -12.3210   91.6090   42.2560 O.2   122  TYR122     -0.2718
     41  CB       -11.1050   89.5920   39.8920 C.3   122  TYR122      0.0548
     42  CG       -11.9990   90.5170   39.0940 C.ar  122  TYR122     -0.0200
     43  CD1      -11.4830   91.6700   38.5110 C.ar  122  TYR122     -0.0009
     44  CD2      -13.3580   90.2430   38.9300 C.ar  122  TYR122     -0.0009
     45  CE1      -12.2830   92.5210   37.7830 C.ar  122  TYR122      0.0417
     46  CE2      -14.1710   91.0920   38.2030 C.ar  122  TYR122      0.0417
     47  CZ       -13.6220   92.2310   37.6350 C.ar  122  TYR122      0.1957
     48  OH       -14.3960   93.0870   36.9090 O.3   122  TYR122     -0.2866
     49  N        -12.5050   89.3800   42.6480 N.am  123  LYS123     -0.1966
     50  CA       -13.7050   89.4470   43.4870 C.3   123  LYS123      0.1728
     51  C        -13.4490   90.2280   44.7790 C.2   123  LYS123      0.2616
     52  O        -14.3030   91.0110   45.2150 O.2   123  LYS123     -0.2715
     53  CB       -14.2460   88.0340   43.7790 C.3   123  LYS123      0.0311
     54  CG       -14.9360   87.3890   42.5770 C.3   123  LYS123      0.0038
     55  CD       -15.2630   85.9100   42.7790 C.3   123  LYS123      0.0206
     56  CE       -15.9760   85.3600   41.5410 C.3   123  LYS123      0.1093
     57  NZ       -16.2760   83.9030   41.6210 N.3   123  LYS123     -0.1314
     58  N        -12.2670   90.0290   45.3670 N.am  124  LEU124     -0.1977
     59  CA       -11.8540   90.7330   46.5840 C.3   124  LEU124      0.1596
     60  C        -11.5170   92.2020   46.3330 C.2   124  LEU124      0.2287
     61  O        -11.6260   93.0280   47.2410 O.2   124  LEU124     -0.2864
     62  CB       -10.6470   90.0450   47.2330 C.3   124  LEU124      0.0297
     63  CG       -10.7570   88.6530   47.8690 C.3   124  LEU124      0.0022
     64  CD1       -9.3790   88.2170   48.3800 C.3   124  LEU124      0.0001
     65  CD2      -11.7800   88.6310   48.9910 C.3   124  LEU124      0.0001
     66  N        -13.0050   94.5990   44.9340 N.3   126  PHE126     -0.1227
     67  CA       -14.1110   95.5400   45.1380 C.3   126  PHE126      0.1736
     68  C        -14.1770   96.1180   46.5520 C.2   126  PHE126      0.2595
     69  O        -14.7470   97.1920   46.7590 O.2   126  PHE126     -0.2718
     70  CB       -15.4360   94.8880   44.7490 C.3   126  PHE126      0.0547
     71  CG       -15.5360   94.5820   43.2850 C.ar  126  PHE126     -0.0202
     72  CD1      -15.1270   93.3450   42.7890 C.ar  126  PHE126     -0.0042
     73  CD2      -16.0130   95.5430   42.3960 C.ar  126  PHE126     -0.0042
     74  CE1      -15.2060   93.0640   41.4310 C.ar  126  PHE126     -0.0003
     75  CE2      -16.1000   95.2730   41.0370 C.ar  126  PHE126     -0.0003
     76  CZ       -15.6950   94.0310   40.5520 C.ar  126  PHE126     -0.0000
     77  N        -13.5790   95.4070   47.5080 N.am  127  PHE127     -0.1976
     78  CA       -13.3980   95.8940   48.8720 C.3   127  PHE127      0.1639
     79  C        -12.6900   97.2520   48.8750 C.2   127  PHE127      0.2290
     80  O        -12.9080   98.0640   49.7620 O.2   127  PHE127     -0.2864
     81  CB       -12.6000   94.8700   49.6840 C.3   127  PHE127      0.0560
     82  CG       -12.5390   95.1610   51.1590 C.ar  127  PHE127     -0.0200
     83  CD1      -11.3990   95.7340   51.7210 C.ar  127  PHE127     -0.0042
     84  CD2      -13.6060   94.8370   51.9940 C.ar  127  PHE127     -0.0042
     85  CE1      -11.3320   95.9900   53.0820 C.ar  127  PHE127     -0.0003
     86  CE2      -13.5420   95.0930   53.3560 C.ar  127  PHE127     -0.0003
     87  CZ       -12.4030   95.6720   53.8990 C.ar  127  PHE127     -0.0000
@<TRIPOS>BOND
     1    48    47    1
     2    47    45   ar
     3    47    46   ar
     4    45    43   ar
     5    46    44   ar
     6    43    42   ar
     7    44    42   ar
     8    42    41    1
     9    41    38    1
    10    76    75   ar
    11    76    74   ar
    12    75    73   ar
    13    38    37    1
    14    38    39    1
    15    74    72   ar
    16    56    57    1
    17    56    55    1
    18    39    40    2
    19    39    49   am
    20    73    71   ar
    21    54    55    1
    22    54    53    1
    23    49    50    1
    24    72    71   ar
    25    71    70    1
    26    50    53    1
    27    50    51    1
    28    70    67    1
    29    51    52    2
    30    51    58   am
    31    66    67    1
    32    67    68    1
    33    58    59    1
    34    60    59    1
    35    60    61    2
    36    68    69    2
    37    68    77   am
    38    59    62    1
    39    62    63    1
    40     7     6    1
    41    77    78    1
    42    63    64    1
    43    63    65    1
    44     8     6    1
    45     5     6    1
    46     5     2    1
    47     1     2    1
    48    78    79    1
    49    78    81    1
    50    79    80    2
    51     2     3    1
    52    81    82    1
    53     3     4    2
    54    82    83   ar
    55    82    84   ar
    56    28    29    1
    57    28    27    1
    58    83    85   ar
    59    84    86   ar
    60     9    10    1
    61    10    11    1
    62    27    26    1
    63    85    87   ar
    64    26    23    1
    65    86    87   ar
    66    11    12    2
    67    11    13   am
    68    23    22    1
    69    23    24    1
    70    13    14    1
    71    24    25    2
    72    24    30   am
    73    18    17    1
    74    18    19    1
    75    14    17    1
    76    14    15    1
    77    21    19   am
    78    30    31    1
    79    19    20    2
    80    15    16    2
    81    31    32    1
    82    31    34    1
    83    36    34    1
    84    32    33    2
    85    34    35    1
