@<TRIPOS>MOLECULE
tmp/2fhkA00.pdb
 87 85 0 0 0
SMALL
GASTEIGER

@<TRIPOS>ATOM
      1  N         26.8700   87.6980   84.2400 N.3    90  LEU90      -0.1245
      2  CA        27.5280   88.6490   83.3390 C.3    90  LEU90       0.1561
      3  C         27.5800   88.1280   81.9120 C.2    90  LEU90       0.2260
      4  O         27.2910   88.8660   80.9650 O.2    90  LEU90      -0.2867
      5  CB        28.9510   88.9500   83.8210 C.3    90  LEU90       0.0270
      6  CG        29.7370   90.0350   83.0790 C.3    90  LEU90       0.0019
      7  CD1       29.3490   91.4290   83.5690 C.3    90  LEU90       0.0001
      8  CD2       31.2250   89.8120   83.2370 C.3    90  LEU90       0.0001
      9  N         25.0340   89.5620   79.2270 N.3    94  GLY94      -0.1210
     10  CA        25.8540   90.3600   78.3100 C.3    94  GLY94       0.1956
     11  C         25.9730   89.8130   76.8950 C.2    94  GLY94       0.2611
     12  O         26.0620   90.5810   75.9340 O.2    94  GLY94      -0.2717
     13  N         25.9880   88.4890   76.7630 N.am   95  GLN95      -0.1979
     14  CA        26.1330   87.8500   75.4500 C.3    95  GLN95       0.1601
     15  C         24.8110   87.4340   74.8270 C.2    95  GLN95       0.2287
     16  O         24.7250   87.2590   73.6110 O.2    95  GLN95      -0.2864
     17  CB        27.0400   86.6210   75.5380 C.3    95  GLN95       0.0394
     18  CG        28.4520   86.8970   76.0330 C.3    95  GLN95       0.0908
     19  CD        29.2650   87.7110   75.0560 C.2    95  GLN95       0.2608
     20  OE1       29.4900   87.2970   73.9200 O.2    95  GLN95      -0.2717
     21  NE2       29.7180   88.8740   75.4950 N.am   95  GLN95      -0.0878
     22  N         21.7930   91.2120   76.1130 N.3    98  MET98      -0.1230
     23  CA        22.2110   92.4990   75.5590 C.3    98  MET98       0.1702
     24  C         22.2030   92.4780   74.0350 C.2    98  MET98       0.2593
     25  O         21.8010   93.4580   73.4030 O.2    98  MET98      -0.2718
     26  CB        23.5750   92.9430   76.0910 C.3    98  MET98       0.0401
     27  CG        23.9440   94.3660   75.6460 C.3    98  MET98       0.0596
     28  SD        25.4100   95.0620   76.4360 S.3    98  MET98      -0.1393
     29  CE        26.6600   94.0140   75.7130 C.3    98  MET98       0.0692
     30  N         22.6040   91.3480   73.4590 N.am   99  THR99      -0.1953
     31  CA        22.6160   91.1450   72.0010 C.3    99  THR99       0.1897
     32  C         21.2320   90.8690   71.3900 C.2    99  THR99       0.2313
     33  O         21.0290   91.0580   70.1830 O.2    99  THR99      -0.2863
     34  CB        23.5440   89.9720   71.6280 C.3    99  THR99       0.1794
     35  OG1       23.0740   88.7800   72.2690 O.3    99  THR99      -0.2208
     36  CG2       24.9910   90.2430   72.0750 C.3    99  THR99       0.0378
     37  N         25.8480   97.4810   86.3320 N.3   122  TYR122     -0.1227
     38  CA        27.0410   98.3230   86.4440 C.3   122  TYR122      0.1736
     39  C         28.2100   97.7200   85.6580 C.2   122  TYR122      0.2595
     40  O         28.8490   98.4040   84.8540 O.2   122  TYR122     -0.2718
     41  CB        27.4100   98.5170   87.9260 C.3   122  TYR122      0.0548
     42  CG        28.6890   99.3000   88.1850 C.ar  122  TYR122     -0.0200
     43  CD1       28.7510  100.6730   87.9510 C.ar  122  TYR122     -0.0009
     44  CD2       29.8260   98.6650   88.6880 C.ar  122  TYR122     -0.0009
     45  CE1       29.9170  101.3940   88.1930 C.ar  122  TYR122      0.0417
     46  CE2       30.9940   99.3720   88.9320 C.ar  122  TYR122      0.0417
     47  CZ        31.0340  100.7360   88.6840 C.ar  122  TYR122      0.1957
     48  OH        32.1890  101.4460   88.9270 O.3   122  TYR122     -0.2866
     49  N         28.4550   96.4310   85.8720 N.am  123  LYS123     -0.1966
     50  CA        29.5830   95.7370   85.2480 C.3   123  LYS123      0.1728
     51  C         29.4310   95.6670   83.7310 C.2   123  LYS123      0.2616
     52  O         30.4200   95.7480   83.0070 O.2   123  LYS123     -0.2715
     53  CB        29.7490   94.3310   85.8260 C.3   123  LYS123      0.0311
     54  CG        30.2370   94.2880   87.2610 C.3   123  LYS123      0.0038
     55  CD        30.1940   92.8620   87.7810 C.3   123  LYS123      0.0206
     56  CE        30.7540   92.7680   89.1890 C.3   123  LYS123      0.1093
     57  NZ        30.8420   91.3570   89.6550 N.3   123  LYS123     -0.1314
     58  N         28.1920   95.5250   83.2620 N.am  124  LEU124     -0.1977
     59  CA        27.9070   95.5130   81.8280 C.3   124  LEU124      0.1596
     60  C         28.0280   96.8950   81.1950 C.2   124  LEU124      0.2287
     61  O         28.4150   97.0070   80.0330 O.2   124  LEU124     -0.2864
     62  CB        26.5080   94.9480   81.5490 C.3   124  LEU124      0.0297
     63  CG        26.2810   93.4410   81.7180 C.3   124  LEU124      0.0022
     64  CD1       24.8250   93.1120   81.4620 C.3   124  LEU124      0.0001
     65  CD2       27.1850   92.6360   80.8010 C.3   124  LEU124      0.0001
     66  N         30.0250   99.2720   81.2120 N.3   126  PHE126     -0.1227
     67  CA        31.3210   99.6270   80.6300 C.3   126  PHE126      0.1736
     68  C         31.4130   99.3290   79.1310 C.2   126  PHE126      0.2595
     69  O         32.2380   99.9210   78.4330 O.2   126  PHE126     -0.2718
     70  CB        32.4590   98.9520   81.3980 C.3   126  PHE126      0.0547
     71  CG        32.6110   99.4540   82.8060 C.ar  126  PHE126     -0.0202
     72  CD1       32.0310   98.7680   83.8690 C.ar  126  PHE126     -0.0042
     73  CD2       33.3190  100.6280   83.0680 C.ar  126  PHE126     -0.0042
     74  CE1       32.1560   99.2410   85.1720 C.ar  126  PHE126     -0.0003
     75  CE2       33.4540  101.1080   84.3680 C.ar  126  PHE126     -0.0003
     76  CZ        32.8720  100.4130   85.4220 C.ar  126  PHE126     -0.0000
     77  N         30.5570   98.4260   78.6480 N.am  127  PHE127     -0.1976
     78  CA        30.3820   98.1720   77.2040 C.3   127  PHE127      0.1639
     79  C         30.0520   99.4590   76.4420 C.2   127  PHE127      0.2290
     80  O         30.3520   99.5710   75.2550 O.2   127  PHE127     -0.2864
     81  CB        29.2730   97.1340   76.9830 C.3   127  PHE127      0.0560
     82  CG        29.1170   96.6770   75.5510 C.ar  127  PHE127     -0.0200
     83  CD1       28.0940   97.1810   74.7520 C.ar  127  PHE127     -0.0042
     84  CD2       29.9730   95.7250   75.0150 C.ar  127  PHE127     -0.0042
     85  CE1       27.9300   96.7400   73.4350 C.ar  127  PHE127     -0.0003
     86  CE2       29.8300   95.2790   73.7020 C.ar  127  PHE127     -0.0003
     87  CZ        28.7970   95.7890   72.9050 C.ar  127  PHE127     -0.0000
@<TRIPOS>BOND
     1    33    32    2
     2    32    31    1
     3    34    31    1
     4    34    36    1
     5    34    35    1
     6    31    30    1
     7    87    85   ar
     8    87    86   ar
     9    25    24    2
    10    85    83   ar
    11    30    24   am
    12    16    15    2
    13    86    84   ar
    14    20    19    2
    15    24    23    1
    16    83    82   ar
    17    15    14    1
    18    84    82   ar
    19    19    21   am
    20    19    18    1
    21    80    79    2
    22    14    17    1
    23    14    13    1
    24    17    18    1
    25    82    81    1
    26    23    26    1
    27    23    22    1
    28    27    26    1
    29    27    28    1
    30    29    28    1
    31    12    11    2
    32    79    78    1
    33    13    11   am
    34    11    10    1
    35    81    78    1
    36    78    77    1
    37    10     9    1
    38    69    68    2
    39    77    68   am
    40    68    67    1
    41    61    60    2
    42    67    66    1
    43    67    70    1
    44    65    63    1
    45     4     3    2
    46    60    59    1
    47    70    71    1
    48    64    63    1
    49    62    63    1
    50    62    59    1
    51    59    58    1
    52     3     2    1
    53    71    73   ar
    54    71    72   ar
    55    52    51    2
    56    73    75   ar
    57     6     8    1
    58     6     7    1
    59     6     5    1
    60    58    51   am
    61     2     5    1
    62     2     1    1
    63    51    50    1
    64    72    74   ar
    65    75    76   ar
    66    40    39    2
    67    74    76   ar
    68    50    53    1
    69    50    49    1
    70    39    49   am
    71    39    38    1
    72    53    54    1
    73    37    38    1
    74    38    41    1
    75    54    55    1
    76    55    56    1
    77    41    42    1
    78    43    42   ar
    79    43    45   ar
    80    42    44   ar
    81    45    47   ar
    82    47    48    1
    83    47    46   ar
    84    44    46   ar
    85    56    57    1
