@<TRIPOS>MOLECULE
tmp/2fhkA01.pdb
 117 112 0 0 0
SMALL
GASTEIGER

@<TRIPOS>ATOM
      1  N         21.8840   72.7380   81.7050 N.3    45  THR45      -0.1203
      2  CA        21.0750   71.6760   82.3100 C.3    45  THR45       0.1994
      3  C         21.6480   71.2400   83.6600 C.2    45  THR45       0.2618
      4  O         20.9080   70.9810   84.6090 O.2    45  THR45      -0.2717
      5  CB        21.0000   70.4190   81.4080 C.3    45  THR45       0.1784
      6  OG1       22.3170   69.8770   81.2250 O.3    45  THR45      -0.2211
      7  CG2       20.3790   70.7520   80.0470 C.3    45  THR45       0.0376
      8  N         22.9740   71.1500   83.7270 N.am   46  SER46      -0.1951
      9  CA        23.6520   70.5460   84.8640 C.3    46  SER46       0.1924
     10  C         25.0510   71.1080   85.0080 C.2    46  SER46       0.2314
     11  O         25.7610   71.2550   84.0210 O.2    46  SER46      -0.2863
     12  CB        23.7370   69.0330   84.6790 C.3    46  SER46       0.2116
     13  OG        24.6830   68.4730   85.5720 O.3    46  SER46      -0.2180
     14  N         27.3850   69.5120   86.1090 N.3    48  ILE48      -0.1231
     15  CA        28.3120   68.3970   85.8430 C.3    48  ILE48       0.1692
     16  C         29.2750   68.7810   84.7040 C.2    48  ILE48       0.2591
     17  O         30.4950   68.6920   84.8640 O.2    48  ILE48      -0.2718
     18  CB        27.5780   67.0490   85.5670 C.3    48  ILE48       0.0266
     19  CG1       26.9070   66.5270   86.8460 C.3    48  ILE48       0.0019
     20  CG2       28.5470   65.9880   85.0280 C.3    48  ILE48       0.0020
     21  CD1       25.9220   65.3790   86.6240 C.3    48  ILE48       0.0001
     22  N         28.7310   69.2400   83.5760 N.am   49  MET49      -0.1979
     23  CA        29.5690   69.7220   82.4710 C.3    49  MET49       0.1605
     24  C         29.0230   70.9620   81.7360 C.2    49  MET49       0.2287
     25  O         29.5590   71.3500   80.6950 O.2    49  MET49      -0.2864
     26  CB        29.8950   68.5890   81.4850 C.3    49  MET49       0.0413
     27  CG        31.2420   67.9240   81.7130 C.3    49  MET49       0.0598
     28  SD        31.5680   66.5780   80.5580 S.3    49  MET49      -0.1393
     29  CE        30.9760   65.1820   81.4970 C.3    49  MET49       0.0692
     30  N         16.6520   70.8820   82.7030 N.3   200  PHE200     -0.1241
     31  CA        16.9130   69.9170   81.6410 C.3   200  PHE200      0.1605
     32  C         16.0580   70.1850   80.3920 C.2   200  PHE200      0.2264
     33  O         15.1140   70.9720   80.4670 O.2   200  PHE200     -0.2867
     34  CB        16.7820   68.4970   82.1900 C.3   200  PHE200      0.0534
     35  CG        17.9400   68.1060   83.0650 C.ar  200  PHE200     -0.0203
     36  CD1       17.9170   68.3720   84.4280 C.ar  200  PHE200     -0.0042
     37  CD2       19.0800   67.5260   82.5150 C.ar  200  PHE200     -0.0042
     38  CE1       19.0000   68.0390   85.2390 C.ar  200  PHE200     -0.0003
     39  CE2       20.1800   67.1990   83.3210 C.ar  200  PHE200     -0.0003
     40  CZ        20.1330   67.4490   84.6800 C.ar  200  PHE200     -0.0000
     41  N         14.7650   64.7690   82.1630 N.3   205  VAL205     -0.1245
     42  CA        16.0400   64.0570   82.0880 C.3   205  VAL205      0.1561
     43  C         15.8150   62.6460   81.5490 C.2   205  VAL205      0.2260
     44  O         15.1310   61.8370   82.1820 O.2   205  VAL205     -0.2867
     45  CB        16.7250   63.8960   83.4970 C.3   205  VAL205      0.0252
     46  CG1       18.2090   63.5730   83.3410 C.3   205  VAL205      0.0019
     47  CG2       16.5240   65.1100   84.3720 C.3   205  VAL205      0.0019
     48  N         18.5060   60.7620   80.8920 N.3   207  SER207     -0.1202
     49  CA        19.7350   60.0660   81.2670 C.3   207  SER207      0.2020
     50  C         20.2050   60.4310   82.6730 C.2   207  SER207      0.2619
     51  O         21.2840   61.0020   82.8380 O.2   207  SER207     -0.2717
     52  CB        20.8390   60.3670   80.2560 C.3   207  SER207      0.2103
     53  OG        21.1190   61.7540   80.2150 O.3   207  SER207     -0.2182
     54  N         19.3840   60.0990   83.6690 N.am  208  ALA208     -0.1965
     55  CA        19.7230   60.2610   85.0880 C.3   208  ALA208      0.1728
     56  C         21.0530   59.6040   85.4170 C.2   208  ALA208      0.2616
     57  O         21.3790   58.5440   84.8750 O.2   208  ALA208     -0.2715
     58  CB        18.6210   59.6800   85.9720 C.3   208  ALA208      0.0334
     59  N         21.8070   60.2350   86.3100 N.am  209  SER209     -0.1950
     60  CA        23.1730   59.8240   86.6180 C.3   209  SER209      0.1924
     61  C         23.3610   59.3910   88.0740 C.2   209  SER209      0.2314
     62  O         22.5030   59.6370   88.9190 O.2   209  SER209     -0.2863
     63  CB        24.1420   60.9640   86.2950 C.3   209  SER209      0.2116
     64  OG        23.9250   62.0800   87.1450 O.3   209  SER209     -0.2180
     65  N         38.0290   58.2230   86.0270 N.3   218  PHE218     -0.1227
     66  CA        38.1270   59.5750   85.4770 C.3   218  PHE218      0.1736
     67  C         36.7800   60.2960   85.3430 C.2   218  PHE218      0.2595
     68  O         36.7330   61.4680   84.9570 O.2   218  PHE218     -0.2718
     69  CB        38.8820   59.5600   84.1360 C.3   218  PHE218      0.0547
     70  CG        38.2990   58.6230   83.1080 C.ar  218  PHE218     -0.0202
     71  CD1       37.3530   59.0740   82.1900 C.ar  218  PHE218     -0.0042
     72  CD2       38.7110   57.2920   83.0450 C.ar  218  PHE218     -0.0042
     73  CE1       36.8170   58.2140   81.2370 C.ar  218  PHE218     -0.0003
     74  CE2       38.1790   56.4240   82.0920 C.ar  218  PHE218     -0.0003
     75  CZ        37.2310   56.8870   81.1880 C.ar  218  PHE218     -0.0000
     76  N         35.6960   59.5990   85.6750 N.am  219  LEU219     -0.1966
     77  CA        34.3400   60.1420   85.5320 C.3   219  LEU219      0.1713
     78  C         33.7390   60.6340   86.8550 C.2   219  LEU219      0.2458
     79  O         33.7110   59.8880   87.8360 O.2   219  LEU219     -0.2730
     80  CB        33.4000   59.1050   84.8930 C.3   219  LEU219      0.0310
     81  CG        33.6600   58.6780   83.4470 C.3   219  LEU219      0.0022
     82  CD1       32.7180   57.5640   83.0500 C.3   219  LEU219      0.0001
     83  CD2       33.5140   59.8470   82.4940 C.3   219  LEU219      0.0001
     84  N         33.2390   61.8880   86.8730 N.am  220  PRO220     -0.2716
     85  CA        32.5450   62.4350   88.0400 C.3   220  PRO220      0.1536
     86  C         31.1050   61.9190   88.1700 C.2   220  PRO220      0.2598
     87  O         30.5140   62.0050   89.2510 O.2   220  PRO220     -0.2715
     88  CB        32.5540   63.9440   87.7710 C.3   220  PRO220      0.0310
     89  CG        32.5480   64.0600   86.2950 C.3   220  PRO220      0.0237
     90  CD        33.3030   62.8640   85.7660 C.3   220  PRO220      0.0939
     91  N         30.5580   61.3910   87.0740 N.am  221  ALA221     -0.1964
     92  CA        29.2050   60.8340   87.0440 C.3   221  ALA221      0.1728
     93  C         29.0560   59.8440   85.8960 C.2   221  ALA221      0.2616
     94  O         29.7420   59.9660   84.8820 O.2   221  ALA221     -0.2715
     95  CB        28.1740   61.9490   86.9180 C.3   221  ALA221      0.0334
     96  N         28.1620   58.8670   86.0610 N.am  222  SER222     -0.1950
     97  CA        27.8210   57.9230   84.9940 C.3   222  SER222      0.1924
     98  C         26.3500   57.5250   85.0950 C.2   222  SER222      0.2314
     99  O         25.6790   57.9030   86.0420 O.2   222  SER222     -0.2863
    100  CB        28.7190   56.6830   85.0410 C.3   222  SER222      0.2116
    101  OG        28.5980   56.0090   86.2830 O.3   222  SER222     -0.2180
    102  N         13.3300   61.2400   84.6310 N.3   245  GLU245     -0.1245
    103  CA        13.4700   62.0200   85.8510 C.3   245  GLU245      0.1567
    104  C         13.1210   63.4740   85.5660 C.2   245  GLU245      0.2260
    105  O         13.4380   63.9820   84.4880 O.2   245  GLU245     -0.2867
    106  CB        14.9010   61.9310   86.3910 C.3   245  GLU245      0.0388
    107  CG        15.0440   62.5220   87.7960 C.3   245  GLU245      0.1160
    108  CD        16.4610   62.4780   88.3250 C.2   245  GLU245      0.3649
    109  OE1       17.4060   62.4090   87.5110 O.co2 245  GLU245     -0.2457
    110  OE2       16.6300   62.5190   89.5570 O.co2 245  GLU245     -0.2457
    111  N         13.9790   67.0900   87.2120 N.3   247  VAL247     -0.1245
    112  CA        14.8250   67.7740   88.1930 C.3   247  VAL247      0.1561
    113  C         14.3960   69.2350   88.3410 C.2   247  VAL247      0.2260
    114  O         14.2070   69.9430   87.3490 O.2   247  VAL247     -0.2867
    115  CB        16.3170   67.6620   87.8430 C.3   247  VAL247      0.0252
    116  CG1       17.1530   68.5220   88.7740 C.3   247  VAL247      0.0019
    117  CG2       16.7710   66.2030   87.9250 C.3   247  VAL247      0.0019
@<TRIPOS>BOND
     1     7     5    1
     2    53    52    1
     3    52    49    1
     4    32    33    2
     5    32    31    1
     6    28    29    1
     7    28    27    1
     8    25    24    2
     9    48    49    1
    10    75    73   ar
    11    75    74   ar
    12     6     5    1
    13    73    71   ar
    14    49    50    1
    15     5     2    1
    16    26    27    1
    17    26    23    1
    18    43    42    1
    19    43    44    2
    20    31    34    1
    21    31    30    1
    22     1     2    1
    23    24    23    1
    24    42    41    1
    25    42    45    1
    26    74    72   ar
    27    34    35    1
    28    71    70   ar
    29     2     3    1
    30    23    22    1
    31    83    81    1
    32    37    35   ar
    33    37    39   ar
    34    50    51    2
    35    50    54   am
    36    72    70   ar
    37    82    81    1
    38    35    36   ar
    39    70    69    1
    40    39    40   ar
    41    46    45    1
    42    81    80    1
    43    45    47    1
    44    22    16   am
    45     3     8   am
    46     3     4    2
    47    54    55    1
    48     8     9    1
    49    11    10    2
    50    69    66    1
    51    36    38   ar
    52   105   104    2
    53   102   103    1
    54    12     9    1
    55    12    13    1
    56    40    38   ar
    57    16    17    2
    58    16    15    1
    59     9    10    1
    60    57    56    2
    61    94    93    2
    62    80    77    1
    63    68    67    2
    64    97   100    1
    65    97    98    1
    66    97    96    1
    67    20    18    1
    68   100   101    1
    69    55    56    1
    70    55    58    1
    71    98    99    2
    72    67    66    1
    73    67    76   am
    74    56    59   am
    75    66    65    1
    76    77    76    1
    77    77    78    1
    78   104   103    1
    79    18    15    1
    80    18    19    1
    81    90    89    1
    82    90    84    1
    83    15    14    1
    84   103   106    1
    85    93    96   am
    86    93    92    1
    87    63    60    1
    88    63    64    1
    89    89    88    1
    90    59    60    1
    91   106   107    1
    92    60    61    1
    93    21    19    1
    94    78    84   am
    95    78    79    2
    96    84    85    1
    97    95    92    1
    98    92    91    1
    99    91    86   am
   100   111   112    1
   101   114   113    2
   102   109   108   ar
   103    88    85    1
   104   107   108    1
   105   115   117    1
   106   115   112    1
   107   115   116    1
   108    85    86    1
   109    61    62    2
   110    86    87    2
   111   112   113    1
   112   108   110   ar
