@<TRIPOS>MOLECULE
tmp/2fhkD00.pdb
 129 124 0 0 0
SMALL
GASTEIGER

@<TRIPOS>ATOM
      1  N        -12.9560   84.9630   62.2890 N.3    45  THR45      -0.1203
      2  CA       -12.5190   86.3300   62.5690 C.3    45  THR45       0.1994
      3  C        -13.7150   87.2660   62.6970 C.2    45  THR45       0.2618
      4  O        -13.7390   88.1420   63.5580 O.2    45  THR45      -0.2717
      5  CB       -11.5790   86.8840   61.4710 C.3    45  THR45       0.1784
      6  OG1      -12.2680   86.9280   60.2130 O.3    45  THR45      -0.2211
      7  CG2      -10.3220   86.0230   61.3320 C.3    45  THR45       0.0376
      8  N        -14.7080   87.0630   61.8330 N.am   46  SER46      -0.1951
      9  CA       -15.8190   87.9900   61.6820 C.3    46  SER46       0.1924
     10  C        -17.0160   87.2520   61.1080 C.2    46  SER46       0.2314
     11  O        -16.8540   86.4400   60.2120 O.2    46  SER46      -0.2863
     12  CB       -15.4120   89.1140   60.7280 C.3    46  SER46       0.2116
     13  OG       -16.5250   89.9010   60.3640 O.3    46  SER46      -0.2180
     14  N        -19.1100   88.5110   59.2340 N.3    48  ILE48      -0.1231
     15  CA       -19.3090   89.0680   57.8940 C.3    48  ILE48       0.1692
     16  C        -19.2050   87.9580   56.8420 C.2    48  ILE48       0.2591
     17  O        -20.1200   87.7910   56.0250 O.2    48  ILE48      -0.2718
     18  CB       -18.3260   90.2390   57.5860 C.3    48  ILE48       0.0266
     19  CG1      -18.5830   91.4240   58.5290 C.3    48  ILE48       0.0019
     20  CG2      -18.4520   90.6920   56.1300 C.3    48  ILE48       0.0020
     21  CD1      -17.4370   92.4420   58.6060 C.3    48  ILE48       0.0001
     22  N        -18.1050   87.2000   56.8660 N.am   49  MET49      -0.1979
     23  CA       -17.9210   86.0810   55.9290 C.3    49  MET49       0.1605
     24  C        -17.4060   84.7710   56.5550 C.2    49  MET49       0.2287
     25  O        -17.2270   83.7770   55.8420 O.2    49  MET49      -0.2864
     26  CB       -17.0460   86.4890   54.7350 C.3    49  MET49       0.0413
     27  CG       -17.6510   87.5790   53.8280 C.3    49  MET49       0.0598
     28  SD       -16.9870   87.5890   52.1470 S.3    49  MET49      -0.1393
     29  CE       -15.2110   87.6810   52.4490 C.3    49  MET49       0.0692
     30  N         -7.9580  101.7740   67.4060 N.3   170  TYR170     -0.1241
     31  CA        -7.0250  101.9020   66.3000 C.3   170  TYR170      0.1605
     32  C         -5.6750  102.3600   66.8050 C.2   170  TYR170      0.2264
     33  O         -5.5930  103.2810   67.6130 O.2   170  TYR170     -0.2867
     34  CB        -7.5040  102.9290   65.2730 C.3   170  TYR170      0.0534
     35  CG        -8.7150  102.4950   64.4770 C.ar  170  TYR170     -0.0201
     36  CD1       -9.9740  103.0180   64.7550 C.ar  170  TYR170     -0.0009
     37  CD2       -8.6020  101.5630   63.4500 C.ar  170  TYR170     -0.0009
     38  CE1      -11.1020  102.6230   64.0260 C.ar  170  TYR170      0.0417
     39  CE2       -9.7250  101.1620   62.7070 C.ar  170  TYR170      0.0417
     40  CZ       -10.9690  101.6930   63.0060 C.ar  170  TYR170      0.1957
     41  OH       -12.0820  101.3060   62.2820 O.3   170  TYR170     -0.2866
     42  N         -9.5360   88.2300   65.3110 N.3   200  PHE200     -0.1241
     43  CA        -8.7620   88.3750   64.0650 C.3   200  PHE200      0.1605
     44  C         -7.3780   87.6910   64.1200 C.2   200  PHE200      0.2264
     45  O         -6.9360   87.2880   65.1970 O.2   200  PHE200     -0.2867
     46  CB        -8.7000   89.8490   63.6420 C.3   200  PHE200      0.0534
     47  CG       -10.0180   90.3670   63.1270 C.ar  200  PHE200     -0.0203
     48  CD1      -10.9680   90.8820   64.0000 C.ar  200  PHE200     -0.0042
     49  CD2      -10.3220   90.2910   61.7760 C.ar  200  PHE200     -0.0042
     50  CE1      -12.2020   91.3460   63.5280 C.ar  200  PHE200     -0.0003
     51  CE2      -11.5510   90.7450   61.2880 C.ar  200  PHE200     -0.0003
     52  CZ       -12.4900   91.2780   62.1670 C.ar  200  PHE200     -0.0000
     53  N         -6.4780   93.4030   63.1080 N.3   205  VAL205     -0.1245
     54  CA        -7.1430   93.6380   61.8180 C.3   205  VAL205      0.1561
     55  C         -6.2480   94.5280   60.9580 C.2   205  VAL205      0.2260
     56  O         -5.9810   95.6800   61.3080 O.2   205  VAL205     -0.2867
     57  CB        -8.5230   94.3600   61.9650 C.3   205  VAL205      0.0252
     58  CG1       -9.3210   94.2710   60.6740 C.3   205  VAL205      0.0019
     59  CG2       -9.3260   93.8050   63.1170 C.3   205  VAL205      0.0019
     60  N         -7.1390   95.1430   57.8220 N.3   207  SER207     -0.1202
     61  CA        -8.0810   95.6900   56.8450 C.3   207  SER207      0.2020
     62  C         -9.4330   96.0500   57.4680 C.2   207  SER207      0.2619
     63  O        -10.4560   95.4260   57.1660 O.2   207  SER207     -0.2717
     64  CB        -8.2580   94.7190   55.6700 C.3   207  SER207      0.2103
     65  OG        -8.8410   93.4970   56.0870 O.3   207  SER207     -0.2182
     66  N         -9.4260   97.0560   58.3430 N.am  208  ALA208     -0.1965
     67  CA       -10.6440   97.5570   58.9690 C.3   208  ALA208      0.1728
     68  C        -11.6100   98.0210   57.8850 C.2   208  ALA208      0.2616
     69  O        -11.1930   98.5690   56.8640 O.2   208  ALA208     -0.2715
     70  CB       -10.3220   98.7090   59.9390 C.3   208  ALA208      0.0334
     71  N        -12.8950   97.7980   58.0930 N.am  209  SER209     -0.1950
     72  CA       -13.8640   98.1740   57.0870 C.3   209  SER209      0.1924
     73  C        -14.7280   99.3490   57.5320 C.2   209  SER209      0.2314
     74  O        -14.8220   99.6540   58.7230 O.2   209  SER209     -0.2863
     75  CB       -14.7330   96.9730   56.7090 C.3   209  SER209      0.2116
     76  OG       -15.5300   96.5760   57.8000 O.3   209  SER209     -0.2180
     77  N        -23.4670   97.9540   45.3420 N.3   218  PHE218     -0.1227
     78  CA       -23.7020   96.5600   45.7030 C.3   218  PHE218      0.1736
     79  C        -22.8950   96.0600   46.9070 C.2   218  PHE218      0.2595
     80  O        -23.0930   94.9280   47.3530 O.2   218  PHE218     -0.2718
     81  CB       -23.4940   95.6300   44.4910 C.3   218  PHE218      0.0547
     82  CG       -22.1080   95.6760   43.9140 C.ar  218  PHE218     -0.0202
     83  CD1      -21.0830   94.9070   44.4620 C.ar  218  PHE218     -0.0042
     84  CD2      -21.8300   96.4840   42.8130 C.ar  218  PHE218     -0.0042
     85  CE1      -19.7930   94.9490   43.9330 C.ar  218  PHE218     -0.0003
     86  CE2      -20.5480   96.5320   42.2690 C.ar  218  PHE218     -0.0003
     87  CZ       -19.5240   95.7630   42.8360 C.ar  218  PHE218     -0.0000
     88  N        -21.9960   96.8880   47.4340 N.am  219  LEU219     -0.1966
     89  CA       -21.2060   96.4890   48.6000 C.3   219  LEU219      0.1713
     90  C        -21.8870   96.8420   49.9200 C.2   219  LEU219      0.2458
     91  O        -22.3850   97.9560   50.0730 O.2   219  LEU219     -0.2730
     92  CB       -19.8020   97.0990   48.5630 C.3   219  LEU219      0.0310
     93  CG       -18.7040   96.3330   47.8240 C.3   219  LEU219      0.0022
     94  CD1      -17.4770   97.2100   47.7220 C.3   219  LEU219      0.0001
     95  CD2      -18.3710   94.9990   48.4960 C.3   219  LEU219      0.0001
     96  N        -21.9320   95.8790   50.8660 N.am  220  PRO220     -0.2716
     97  CA       -22.3630   96.1400   52.2430 C.3   220  PRO220      0.1536
     98  C        -21.3010   96.8990   53.0510 C.2   220  PRO220      0.2598
     99  O        -21.6360   97.7200   53.9160 O.2   220  PRO220     -0.2715
    100  CB       -22.5650   94.7300   52.8160 C.3   220  PRO220      0.0310
    101  CG       -21.6660   93.8550   52.0250 C.3   220  PRO220      0.0237
    102  CD       -21.6010   94.4550   50.6500 C.3   220  PRO220      0.0939
    103  N        -20.0370   96.6110   52.7480 N.am  221  ALA221     -0.1964
    104  CA       -18.8780   97.1510   53.4530 C.3   221  ALA221      0.1728
    105  C        -17.7070   97.2180   52.4850 C.2   221  ALA221      0.2616
    106  O        -17.6570   96.4700   51.5100 O.2   221  ALA221     -0.2715
    107  CB       -18.5180   96.2640   54.6510 C.3   221  ALA221      0.0334
    108  N        -16.7690   98.1160   52.7600 N.am  222  SER222     -0.1950
    109  CA       -15.5670   98.2480   51.9560 C.3   222  SER222      0.1924
    110  C        -14.4270   98.7200   52.8390 C.2   222  SER222      0.2314
    111  O        -14.6010   98.8820   54.0410 O.2   222  SER222     -0.2863
    112  CB       -15.7940   99.2360   50.8100 C.3   222  SER222      0.2116
    113  OG       -16.2500  100.4790   51.3010 O.3   222  SER222     -0.2180
    114  N         -6.2450   97.9190   63.5170 N.3   245  GLU245     -0.1245
    115  CA        -7.3470   97.8410   64.4630 C.3   245  GLU245      0.1567
    116  C         -7.2220   96.5850   65.3260 C.2   245  GLU245      0.2260
    117  O         -6.8800   95.5170   64.8200 O.2   245  GLU245     -0.2867
    118  CB        -8.6990   97.8490   63.7400 C.3   245  GLU245      0.0388
    119  CG        -9.8520   98.1260   64.6770 C.3   245  GLU245      0.1160
    120  CD       -11.2090   97.9650   64.0360 C.2   245  GLU245      0.3649
    121  OE1      -11.3080   97.3950   62.9250 O.co2 245  GLU245     -0.2457
    122  OE2      -12.1900   98.4120   64.6550 O.co2 245  GLU245     -0.2457
    123  N         -9.7500   94.3300   67.4700 N.3   247  VAL247     -0.1245
    124  CA       -11.1560   94.0610   67.7820 C.3   247  VAL247      0.1561
    125  C        -11.2660   93.0550   68.9260 C.2   247  VAL247      0.2260
    126  O        -10.5980   92.0160   68.9250 O.2   247  VAL247     -0.2867
    127  CB       -11.9390   93.5860   66.5300 C.3   247  VAL247      0.0252
    128  CG1      -13.3300   93.0940   66.9020 C.3   247  VAL247      0.0019
    129  CG2      -12.0360   94.7090   65.5110 C.3   247  VAL247      0.0019
@<TRIPOS>BOND
     1    86    84   ar
     2    86    87   ar
     3    84    82   ar
     4    87    85   ar
     5    82    83   ar
     6    82    81    1
     7    85    83   ar
     8    81    78    1
     9    77    78    1
    10    78    79    1
    11    79    80    2
    12    79    88   am
    13    88    89    1
    14    94    93    1
    15    93    95    1
    16    93    92    1
    17    92    89    1
    18    89    90    1
    19    90    91    2
    20    90    96   am
    21   102    96    1
    22   102   101    1
    23   112   113    1
    24   112   109    1
    25    96    97    1
    26   106   105    2
    27   109   108    1
    28   109   110    1
    29   101   100    1
    30    28    29    1
    31    28    27    1
    32    97   100    1
    33    97    98    1
    34   105   108   am
    35   105   104    1
    36   103    98   am
    37   103   104    1
    38   110   111    2
    39    98    99    2
    40   104   107    1
    41    27    26    1
    42    26    23    1
    43    64    65    1
    44    64    61    1
    45    25    24    2
    46    23    24    1
    47    23    22    1
    48    17    16    2
    49    20    18    1
    50    75    72    1
    51    75    76    1
    52    16    22   am
    53    16    15    1
    54    61    62    1
    55    61    60    1
    56    69    68    2
    57    72    73    1
    58    72    71    1
    59    63    62    2
    60    62    66   am
    61    73    74    2
    62    18    15    1
    63    18    19    1
    64    68    71   am
    65    68    67    1
    66    15    14    1
    67    66    67    1
    68    19    21    1
    69    67    70    1
    70    11    10    2
    71     6     5    1
    72    13    12    1
    73    58    57    1
    74    12     9    1
    75    55    56    2
    76    55    54    1
    77    10     9    1
    78    51    49   ar
    79    51    52   ar
    80     7     5    1
    81     5     2    1
    82     9     8    1
    83    49    47   ar
    84    54    57    1
    85    54    53    1
    86     8     3   am
    87    57    59    1
    88    52    50   ar
    89    41    40    1
    90     1     2    1
    91     2     3    1
    92     3     4    2
    93    39    40   ar
    94    39    37   ar
    95   121   120   ar
    96    40    38   ar
    97    47    46    1
    98    47    48   ar
    99    37    35   ar
   100   114   115    1
   101    50    48   ar
   102    46    43    1
   103   118   115    1
   104   118   119    1
   105    38    36   ar
   106   120   122   ar
   107   120   119    1
   108    43    44    1
   109    43    42    1
   110    44    45    2
   111   115   116    1
   112    35    36   ar
   113    35    34    1
   114   117   116    2
   115    34    31    1
   116   129   127    1
   117    31    32    1
   118    31    30    1
   119   127   128    1
   120   127   124    1
   121    32    33    2
   122   123   124    1
   123   124   125    1
   124   126   125    2
