@<TRIPOS>MOLECULE
tmp/2fhyD01.pdb
 131 126 0 0 0
SMALL
GASTEIGER

@<TRIPOS>ATOM
      1  N         44.4210    9.2240   28.4140 N.3     9  VAL9       -0.1231
      2  CA        44.9190    8.4990   29.5660 C.3     9  VAL9        0.1692
      3  C         45.9650    7.4660   29.1930 C.2     9  VAL9        0.2591
      4  O         46.9640    7.3370   29.8870 O.2     9  VAL9       -0.2718
      5  CB        43.7780    7.8070   30.3170 C.3     9  VAL9        0.0266
      6  CG1       44.3170    6.6290   31.1200 C.3     9  VAL9        0.0020
      7  CG2       43.1060    8.8080   31.2390 C.3     9  VAL9        0.0020
      8  N         45.7530    6.7340   28.1030 N.am   10  MET10      -0.1979
      9  CA        46.7250    5.7220   27.7290 C.3    10  MET10       0.1605
     10  C         47.9610    6.3100   27.0730 C.2    10  MET10       0.2287
     11  O         48.9060    5.5820   26.7680 O.2    10  MET10      -0.2864
     12  CB        46.1030    4.6460   26.8380 C.3    10  MET10       0.0413
     13  CG        45.5450    5.1240   25.5190 C.3    10  MET10       0.0598
     14  SD        45.0790    3.7170   24.4700 S.3    10  MET10      -0.1393
     15  CE        44.1940    2.7390   25.6320 C.3    10  MET10       0.0692
     16  N         49.3480    9.0690   28.5530 N.3    12  GLU12      -0.1231
     17  CA        50.0480    9.4810   29.7730 C.3    12  GLU12       0.1699
     18  C         50.6580    8.2520   30.4110 C.2    12  GLU12       0.2593
     19  O         51.8100    8.2540   30.8430 O.2    12  GLU12      -0.2718
     20  CB        49.0860   10.1180   30.7780 C.3    12  GLU12       0.0402
     21  CG        48.7310   11.5550   30.4750 C.3    12  GLU12       0.1161
     22  CD        49.9570   12.4160   30.2850 C.2    12  GLU12       0.3649
     23  OE1       50.6300   12.2740   29.2450 O.co2  12  GLU12      -0.2457
     24  OE2       50.2550   13.2300   31.1820 O.co2  12  GLU12      -0.2457
     25  N         49.8610    7.1990   30.4770 N.am   13  GLY13      -0.1942
     26  CA        50.3440    5.9680   31.0540 C.3    13  GLY13       0.2014
     27  C         51.4760    5.3930   30.2410 C.2    13  GLY13       0.2638
     28  O         52.5030    4.9830   30.7820 O.2    13  GLY13      -0.2714
     29  N         51.2860    5.3660   28.9300 N.am   14  ARG14      -0.1977
     30  CA        52.2790    4.8310   28.0200 C.3    14  ARG14       0.1597
     31  C         53.5210    5.7230   27.9690 C.2    14  ARG14       0.2287
     32  O         54.6180    5.2470   27.6670 O.2    14  ARG14      -0.2864
     33  CB        51.6450    4.6740   26.6380 C.3    14  ARG14       0.0334
     34  CG        52.4430    3.8730   25.6400 C.3    14  ARG14       0.0492
     35  CD        51.5300    3.4180   24.5140 C.3    14  ARG14       0.2205
     36  NE        52.2700    3.0250   23.3190 N.pl3  14  ARG14      -0.0865
     37  CZ        52.8610    3.8820   22.4930 C.cat  14  ARG14       0.5346
     38  NH1       52.7950    5.1840   22.7320 N.pl3  14  ARG14       0.1354
     39  NH2       53.5140    3.4410   21.4270 N.pl3  14  ARG14       0.1354
     40  N         54.6050    7.5480   30.6740 N.3    16  ALA16      -0.1231
     41  CA        55.2510    7.3700   31.9730 C.3    16  ALA16       0.1694
     42  C         55.6990    5.9220   32.0590 C.2    16  ALA16       0.2592
     43  O         56.0070    5.4180   33.1410 O.2    16  ALA16      -0.2718
     44  CB        54.2760    7.6630   33.0800 C.3    16  ALA16       0.0304
     45  N         55.7120    5.2710   30.8970 N.am   17  ARG17      -0.1966
     46  CA        56.0900    3.8730   30.7520 C.3    17  ARG17       0.1729
     47  C         55.6210    3.0690   31.9680 C.2    17  ARG17       0.2617
     48  O         56.3540    2.2410   32.5080 O.2    17  ARG17      -0.2715
     49  CB        57.6030    3.7640   30.5750 C.3    17  ARG17       0.0348
     50  CG        58.0290    2.6480   29.6390 C.3    17  ARG17       0.0492
     51  CD        59.5440    2.5530   29.5410 C.3    17  ARG17       0.2205
     52  NE        60.1490    3.7910   29.1070 N.pl3  17  ARG17      -0.0865
     53  CZ        61.1290    4.4840   29.6840 C.cat  17  ARG17       0.5346
     54  NH1       61.7270    4.1160   30.8150 N.pl3  17  ARG17       0.1354
     55  NH2       61.5170    5.5910   29.0760 N.pl3  17  ARG17       0.1354
     56  N         54.3820    3.3230   32.3840 N.am   18  GLY18      -0.1940
     57  CA        53.8120    2.6510   33.5360 C.3    18  GLY18       0.2014
     58  C         53.3010    1.2570   33.2480 C.2    18  GLY18       0.2640
     59  O         53.5040    0.7200   32.1560 O.2    18  GLY18      -0.2714
     60  N         52.6420    0.6710   34.2410 N.am   19  THR19      -0.1936
     61  CA        52.0960   -0.6740   34.1190 C.3    19  THR19       0.2028
     62  C         50.9210   -0.6580   33.1660 C.2    19  THR19       0.2643
     63  O         50.8850   -1.3830   32.1770 O.2    19  THR19      -0.2714
     64  CB        51.5530   -1.1880   35.4600 C.3    19  THR19       0.1808
     65  OG1       52.5120   -0.9460   36.4890 O.3    19  THR19      -0.2208
     66  CG2       51.2650   -2.6750   35.3840 C.3    19  THR19       0.0379
     67  N         49.9570    0.1880   33.4900 N.am   20  GLY20      -0.1939
     68  CA        48.7500    0.2900   32.7080 C.3    20  GLY20       0.2014
     69  C         47.6070    0.0230   33.6670 C.2    20  GLY20       0.2639
     70  O         46.4250    0.0970   33.3040 O.2    20  GLY20      -0.2714
     71  N         47.9580   -0.2800   34.9120 N.am   21  GLU21      -0.1963
     72  CA        46.9450   -0.5630   35.9060 C.3    21  GLU21       0.1733
     73  C         46.0780    0.6580   36.1720 C.2    21  GLU21       0.2616
     74  O         44.8520    0.5450   36.2770 O.2    21  GLU21      -0.2715
     75  CB        47.5800   -1.0500   37.2040 C.3    21  GLU21       0.0429
     76  CG        46.6040   -1.8530   38.0400 C.3    21  GLU21       0.1163
     77  CD        47.2880   -2.6590   39.1140 C.2    21  GLU21       0.3649
     78  OE1       48.3390   -3.2740   38.8240 O.co2  21  GLU21      -0.2457
     79  OE2       46.7680   -2.6890   40.2450 O.co2  21  GLU21      -0.2457
     80  N         46.7010    1.8280   36.2850 N.am   22  LEU22      -0.1963
     81  CA        45.9280    3.0370   36.5190 C.3    22  LEU22       0.1728
     82  C         45.0130    3.3010   35.3240 C.2    22  LEU22       0.2616
     83  O         43.8530    3.6900   35.4870 O.2    22  LEU22      -0.2715
     84  CB        46.8480    4.2300   36.7270 C.3    22  LEU22       0.0311
     85  CG        46.0340    5.5100   36.9250 C.3    22  LEU22       0.0022
     86  CD1       45.0750    5.3580   38.1310 C.3    22  LEU22       0.0001
     87  CD2       46.9900    6.6720   37.0970 C.3    22  LEU22       0.0001
     88  N         45.5430    3.0900   34.1220 N.am   23  THR23      -0.1951
     89  CA        44.7780    3.2800   32.8940 C.3    23  THR23       0.1897
     90  C         43.5310    2.3880   32.8690 C.2    23  THR23       0.2313
     91  O         42.4270    2.8730   32.6010 O.2    23  THR23      -0.2863
     92  CB        45.6490    2.9870   31.6800 C.3    23  THR23       0.1794
     93  OG1       46.7610    3.8770   31.6990 O.3    23  THR23      -0.2208
     94  CG2       44.8830    3.1970   30.3910 C.3    23  THR23       0.0378
     95  N         41.0140    3.8270   35.3750 N.3    26  LEU26      -0.1245
     96  CA        40.3280    5.0040   34.8470 C.3    26  LEU26       0.1561
     97  C         39.3320    4.6610   33.7500 C.2    26  LEU26       0.2260
     98  O         38.1940    5.1370   33.7780 O.2    26  LEU26      -0.2867
     99  CB        41.3340    6.0290   34.3250 C.3    26  LEU26       0.0270
    100  CG        42.1590    6.7440   35.4020 C.3    26  LEU26       0.0019
    101  CD1       43.0830    7.7580   34.7360 C.3    26  LEU26       0.0001
    102  CD2       41.2300    7.4180   36.4170 C.3    26  LEU26       0.0001
    103  N         46.5370   -2.7450   42.8210 N.3    95  LYS95      -0.1231
    104  CA        47.2370   -1.9380   43.8070 C.3    95  LYS95       0.1693
    105  C         46.5510   -0.6270   44.2120 C.2    95  LYS95       0.2592
    106  O         47.0760    0.1090   45.0380 O.2    95  LYS95      -0.2718
    107  CB        48.6620   -1.6400   43.3110 C.3    95  LYS95       0.0285
    108  CG        48.7430   -0.8900   41.9900 C.3    95  LYS95       0.0035
    109  CD        50.1870   -0.6400   41.5590 C.3    95  LYS95       0.0206
    110  CE        50.2460    0.0380   40.1900 C.3    95  LYS95       0.1093
    111  NZ        51.6360    0.2520   39.7070 N.3    95  LYS95      -0.1314
    112  N         45.3710   -0.3390   43.6800 N.am   96  TYR96      -0.1976
    113  CA        44.7190    0.9310   43.9920 C.3    96  TYR96       0.1639
    114  C         43.5220    0.8720   44.9300 C.2    96  TYR96       0.2290
    115  O         42.7400   -0.0680   44.9050 O.2    96  TYR96      -0.2864
    116  CB        44.3030    1.6410   42.6740 C.3    96  TYR96       0.0560
    117  CG        45.4710    2.0610   41.7820 C.ar   96  TYR96      -0.0198
    118  CD1       46.2600    3.1630   42.0980 C.ar   96  TYR96      -0.0009
    119  CD2       45.8220    1.3120   40.6670 C.ar   96  TYR96      -0.0009
    120  CE1       47.3710    3.5020   41.3300 C.ar   96  TYR96       0.0417
    121  CE2       46.9310    1.6410   39.8980 C.ar   96  TYR96       0.0417
    122  CZ        47.7080    2.7350   40.2310 C.ar   96  TYR96       0.1957
    123  OH        48.8310    3.0340   39.4730 O.3    96  TYR96      -0.2866
    124  N         45.1310   14.9550   37.8540 N.3   160  MET160     -0.1245
    125  CA        46.2290   14.0610   38.1760 C.3   160  MET160      0.1570
    126  C         47.4180   14.9590   38.4510 C.2   160  MET160      0.2261
    127  O         47.3140   16.1800   38.3210 O.2   160  MET160     -0.2867
    128  CB        46.5350   13.1390   37.0010 C.3   160  MET160      0.0387
    129  CG        45.4250   12.1680   36.6690 C.3   160  MET160      0.0595
    130  SD        45.8420   11.2510   35.1920 S.3   160  MET160     -0.1393
    131  CE        46.9530   10.0430   35.9010 C.3   160  MET160      0.0692
@<TRIPOS>BOND
     1    39    37    1
     2    37    38    1
     3    37    36    2
     4    36    35    1
     5    14    13    1
     6    14    15    1
     7    35    34    1
     8    13    12    1
     9    34    33    1
    10    33    30    1
    11    11    10    2
    12    12     9    1
    13    10     9    1
    14    32    31    2
    15     9     8    1
    16    31    30    1
    17    30    29    1
    18     8     3   am
    19     1     2    1
    20    16    17    1
    21    29    27   am
    22    55    53    1
    23    52    51    1
    24    52    53    2
    25     3     2    1
    26     3     4    2
    27    23    22   ar
    28    51    50    1
    29     2     5    1
    30    50    49    1
    31    53    54    1
    32    17    18    1
    33    17    20    1
    34    27    28    2
    35    27    26    1
    36    22    21    1
    37    22    24   ar
    38     5     6    1
    39     5     7    1
    40    94    92    1
    41    18    25   am
    42    18    19    2
    43    21    20    1
    44    25    26    1
    45    49    46    1
    46    40    41    1
    47    46    45    1
    48    46    47    1
    49    45    42   am
    50    92    93    1
    51    92    89    1
    52    47    56   am
    53    47    48    2
    54    41    42    1
    55    41    44    1
    56    42    43    2
    57    59    58    2
    58    63    62    2
    59    56    57    1
    60    91    90    2
    61    68    67    1
    62    68    69    1
    63    90    89    1
    64    89    88    1
    65    62    67   am
    66    62    61    1
    67    58    57    1
    68    58    60   am
    69    70    69    2
    70    69    71   am
    71    97    98    2
    72    97    96    1
    73    61    60    1
    74    61    64    1
    75    88    82   am
    76    99    96    1
    77    99   100    1
    78   101   100    1
    79    96    95    1
    80    71    72    1
    81   130   131    1
    82   130   129    1
    83    82    83    2
    84    82    81    1
    85    66    64    1
    86   100   102    1
    87    64    65    1
    88    72    73    1
    89    72    75    1
    90    73    74    2
    91    73    80   am
    92    80    81    1
    93    81    84    1
    94   129   128    1
    95    84    85    1
    96    85    87    1
    97    85    86    1
    98   128   125    1
    99    75    76    1
   100   124   125    1
   101    76    77    1
   102   125   126    1
   103   127   126    2
   104    78    77   ar
   105    77    79   ar
   106   123   122    1
   107   111   110    1
   108   121   122   ar
   109   121   119   ar
   110   110   109    1
   111   122   120   ar
   112   119   117   ar
   113   120   118   ar
   114   109   108    1
   115   117   118   ar
   116   117   116    1
   117   108   107    1
   118   116   113    1
   119   103   104    1
   120   107   104    1
   121   112   113    1
   122   112   105   am
   123   104   105    1
   124   113   114    1
   125   105   106    2
   126   115   114    2
