@<TRIPOS>MOLECULE
tmp/2fieD01.pdb
 122 116 0 0 0
SMALL
GASTEIGER

@<TRIPOS>ATOM
      1  N          8.9720   30.2220   46.5890 N.3     9  VAL9       -0.1231
      2  CA         9.5660   31.5190   46.2820 C.3     9  VAL9        0.1692
      3  C          8.5260   32.5570   45.8710 C.2     9  VAL9        0.2591
      4  O          8.6290   33.7250   46.2280 O.2     9  VAL9       -0.2718
      5  CB        10.6110   31.3810   45.1510 C.3     9  VAL9        0.0266
      6  CG1       10.8590   32.7180   44.4940 C.3     9  VAL9        0.0020
      7  CG2       11.9050   30.8300   45.7110 C.3     9  VAL9        0.0020
      8  N          7.5190   32.1300   45.1230 N.am   10  MET10      -0.1979
      9  CA         6.4940   33.0500   44.6740 C.3    10  MET10       0.1605
     10  C          5.6830   33.6270   45.7980 C.2    10  MET10       0.2287
     11  O          5.3010   34.7900   45.7450 O.2    10  MET10      -0.2864
     12  CB         5.5680   32.3750   43.6820 C.3    10  MET10       0.0413
     13  CG         6.2610   32.0340   42.4050 C.3    10  MET10       0.0598
     14  SD         5.1110   31.6380   41.1090 S.3    10  MET10      -0.1393
     15  CE         5.9460   32.3840   39.7110 C.3    10  MET10       0.0692
     16  N          6.7700   33.9130   48.9600 N.3    12  GLU12      -0.1231
     17  CA         7.6560   34.8010   49.6930 C.3    12  GLU12       0.1699
     18  C          7.7260   36.1370   48.9470 C.2    12  GLU12       0.2593
     19  O          7.7600   37.2110   49.5610 O.2    12  GLU12      -0.2718
     20  CB         9.0510   34.1950   49.8030 C.3    12  GLU12       0.0402
     21  CG         9.1250   33.0510   50.7790 C.3    12  GLU12       0.1161
     22  CD         8.5500   33.4220   52.1330 C.2    12  GLU12       0.3649
     23  OE1        7.3100   33.3200   52.3080 O.co2  12  GLU12      -0.2457
     24  OE2        9.3380   33.8300   53.0150 O.co2  12  GLU12      -0.2457
     25  N          7.7400   36.0520   47.6160 N.am   13  GLY13      -0.1942
     26  CA         7.8060   37.2350   46.7790 C.3    13  GLY13       0.2014
     27  C          6.6070   38.1470   46.9520 C.2    13  GLY13       0.2638
     28  O          6.7560   39.3650   47.0140 O.2    13  GLY13      -0.2714
     29  N          5.4120   37.5680   47.0210 N.am   14  ARG14      -0.1977
     30  CA         4.2120   38.3710   47.2000 C.3    14  ARG14       0.1597
     31  C          4.2210   38.9730   48.5900 C.2    14  ARG14       0.2287
     32  O          3.8390   40.1270   48.7700 O.2    14  ARG14      -0.2864
     33  CB         2.9520   37.5250   47.0160 C.3    14  ARG14       0.0334
     34  CG         2.7910   37.0050   45.6080 C.3    14  ARG14       0.0492
     35  CD         1.6300   36.0400   45.4650 C.3    14  ARG14       0.2205
     36  NE         0.3330   36.6800   45.6560 N.pl3  14  ARG14      -0.0865
     37  CZ        -0.8300   36.0900   45.4010 C.cat  14  ARG14       0.5346
     38  NH1       -1.9630   36.7450   45.6050 N.pl3  14  ARG14       0.1354
     39  NH2       -0.8650   34.8460   44.9380 N.pl3  14  ARG14       0.1354
     40  N          6.7080   39.9760   50.5640 N.3    16  ALA16      -0.1231
     41  CA         7.5390   41.1590   50.6170 C.3    16  ALA16       0.1694
     42  C          7.2200   42.2090   49.5460 C.2    16  ALA16       0.2592
     43  O          7.8100   43.2900   49.5300 O.2    16  ALA16      -0.2718
     44  CB         8.9950   40.7360   50.5470 C.3    16  ALA16       0.0304
     45  N          6.2840   41.8940   48.6550 N.am   17  ARG17      -0.1966
     46  CA         5.8960   42.8270   47.5970 C.3    17  ARG17       0.1729
     47  C          7.0810   43.4700   46.8790 C.2    17  ARG17       0.2617
     48  O          7.1100   44.6830   46.7070 O.2    17  ARG17      -0.2715
     49  CB         5.0180   43.9370   48.1730 C.3    17  ARG17       0.0348
     50  CG         3.6350   43.5040   48.6210 C.3    17  ARG17       0.0492
     51  CD         3.0780   44.5220   49.5970 C.3    17  ARG17       0.2205
     52  NE         3.8950   44.5690   50.8060 N.pl3  17  ARG17      -0.0865
     53  CZ         3.8050   45.5130   51.7350 C.cat  17  ARG17       0.5346
     54  NH1        2.9310   46.5000   51.5940 N.pl3  17  ARG17       0.1354
     55  NH2        4.5850   45.4660   52.8060 N.pl3  17  ARG17       0.1354
     56  N          8.0480   42.6640   46.4540 N.am   18  GLY18      -0.1940
     57  CA         9.2100   43.2080   45.7710 C.3    18  GLY18       0.2014
     58  C          9.0450   43.4210   44.2780 C.2    18  GLY18       0.2640
     59  O          7.9250   43.5460   43.7790 O.2    18  GLY18      -0.2714
     60  N         10.1690   43.4660   43.5660 N.am   19  THR19      -0.1936
     61  CA        10.1720   43.6700   42.1220 C.3    19  THR19       0.2028
     62  C          9.9090   42.3780   41.3810 C.2    19  THR19       0.2642
     63  O          9.2750   42.3780   40.3270 O.2    19  THR19      -0.2714
     64  CB        11.5170   44.1900   41.6320 C.3    19  THR19       0.1808
     65  OG1       12.4650   44.1260   42.7010 O.3    19  THR19      -0.2208
     66  CG2       11.3860   45.6110   41.1320 C.3    19  THR19       0.0379
     67  N         10.4130   41.2800   41.9340 N.am   20  GLY20      -0.1954
     68  CA        10.2490   39.9830   41.3070 C.3    20  GLY20       0.1869
     69  C         11.5680   39.4950   40.7370 C.2    20  GLY20       0.2309
     70  O         11.6820   38.3480   40.3270 O.2    20  GLY20      -0.2863
     71  N         14.4800   38.7870   42.1930 N.3    22  LEU22      -0.1231
     72  CA        15.0310   37.6710   42.9450 C.3    22  LEU22       0.1693
     73  C         14.2510   36.4060   42.6230 C.2    22  LEU22       0.2592
     74  O         14.8270   35.3280   42.4690 O.2    22  LEU22      -0.2718
     75  CB        14.9610   37.9490   44.4450 C.3    22  LEU22       0.0284
     76  CG        15.5580   36.8320   45.3060 C.3    22  LEU22       0.0019
     77  CD1       17.0470   36.7380   45.0340 C.3    22  LEU22       0.0001
     78  CD2       15.2930   37.0940   46.7810 C.3    22  LEU22       0.0001
     79  N         12.9320   36.5400   42.5330 N.am   23  THR23      -0.1953
     80  CA        12.0830   35.4060   42.2030 C.3    23  THR23       0.1897
     81  C         12.5270   34.8140   40.8660 C.2    23  THR23       0.2313
     82  O         12.7680   33.6120   40.7720 O.2    23  THR23      -0.2863
     83  CB        10.5890   35.8180   42.1420 C.3    23  THR23       0.1794
     84  OG1       10.0630   35.8900   43.4750 O.3    23  THR23      -0.2208
     85  CG2        9.7870   34.8080   41.3590 C.3    23  THR23       0.0378
     86  N         16.0050   33.2680   41.1420 N.3    26  LEU26      -0.1245
     87  CA        15.9640   31.9500   41.7430 C.3    26  LEU26       0.1561
     88  C         15.3920   30.9030   40.8100 C.2    26  LEU26       0.2260
     89  O         15.8590   29.7760   40.8200 O.2    26  LEU26      -0.2867
     90  CB        15.1720   31.9810   43.0520 C.3    26  LEU26       0.0270
     91  CG        15.8900   32.5860   44.2720 C.3    26  LEU26       0.0019
     92  CD1       14.9210   32.7410   45.4390 C.3    26  LEU26       0.0001
     93  CD2       17.0590   31.6920   44.6700 C.3    26  LEU26       0.0001
     94  N         19.7760   43.8250   39.3590 N.3    95  LYS95      -0.1231
     95  CA        20.4670   44.3810   40.5100 C.3    95  LYS95       0.1693
     96  C         21.1020   43.3220   41.4140 C.2    95  LYS95       0.2592
     97  O         21.3720   43.5880   42.5830 O.2    95  LYS95      -0.2718
     98  CB        19.4940   45.2430   41.3180 C.3    95  LYS95       0.0285
     99  CG        18.2310   44.5210   41.7470 C.3    95  LYS95       0.0035
    100  CD        17.3260   45.4390   42.5510 C.3    95  LYS95       0.0206
    101  CE        16.1240   44.7010   43.1240 C.3    95  LYS95       0.1093
    102  NZ        15.1740   44.2860   42.0580 N.3    95  LYS95      -0.1314
    103  N         21.3770   42.1380   40.8740 N.am   96  TYR96      -0.1976
    104  CA        21.9610   41.0710   41.6960 C.3    96  TYR96       0.1639
    105  C         23.3440   40.5460   41.3040 C.2    96  TYR96       0.2290
    106  O         23.6530   40.3880   40.1280 O.2    96  TYR96      -0.2864
    107  CB        20.9810   39.8910   41.7860 C.3    96  TYR96       0.0560
    108  CG        19.7710   40.1910   42.6410 C.ar   96  TYR96      -0.0198
    109  CD1       19.8430   40.1160   44.0230 C.ar   96  TYR96      -0.0009
    110  CD2       18.5700   40.5910   42.0670 C.ar   96  TYR96      -0.0009
    111  CE1       18.7580   40.4300   44.8070 C.ar   96  TYR96       0.0417
    112  CE2       17.4780   40.9100   42.8440 C.ar   96  TYR96       0.0417
    113  CZ        17.5780   40.8270   44.2150 C.ar   96  TYR96       0.1957
    114  OH        16.5020   41.1350   45.0140 O.3    96  TYR96      -0.2866
    115  N         17.5410   31.5940   53.2420 N.3   160  MET160     -0.1245
    116  CA        17.2230   33.0100   53.1010 C.3   160  MET160      0.1570
    117  C         16.9470   33.6070   54.4710 C.2   160  MET160      0.2261
    118  O         17.1460   32.9590   55.4930 O.2   160  MET160     -0.2867
    119  CB        16.0020   33.1990   52.2010 C.3   160  MET160      0.0387
    120  CG        16.2370   32.7740   50.7610 C.3   160  MET160      0.0595
    121  SD        14.7540   32.8460   49.7230 S.3   160  MET160     -0.1393
    122  CE        14.7710   34.5320   49.2460 C.3   160  MET160      0.0692
@<TRIPOS>BOND
     1    94    95    1
     2    15    14    1
     3   106   105    2
     4    70    69    2
     5    63    62    2
     6    95    98    1
     7    95    96    1
     8    69    68    1
     9    82    81    2
    10    88    89    2
    11    88    87    1
    12    81    80    1
    13   103    96   am
    14   103   104    1
    15    14    13    1
    16    66    64    1
    17    86    87    1
    18   105   104    1
    19    68    67    1
    20    98    99    1
    21    85    83    1
    22    62    67   am
    23    62    61    1
    24    96    97    2
    25    64    61    1
    26    64    65    1
    27   104   107    1
    28    87    90    1
    29    99   100    1
    30   107   108    1
    31   102   101    1
    32   110   108   ar
    33   110   112   ar
    34    61    60    1
    35    83    80    1
    36    83    84    1
    37    71    72    1
    38    80    79    1
    39    13    12    1
    40    74    73    2
    41    79    73   am
    42   100   101    1
    43    73    72    1
    44   108   109   ar
    45   112   113   ar
    46    72    75    1
    47    90    91    1
    48    60    58   am
    49    12     9    1
    50    59    58    2
    51   109   111   ar
    52   113   111   ar
    53   113   114    1
    54    91    93    1
    55    91    92    1
    56    58    57    1
    57    75    76    1
    58     6     5    1
    59     9     8    1
    60     9    10    1
    61    39    37    1
    62    77    76    1
    63     8     3   am
    64     5     7    1
    65     5     2    1
    66    76    78    1
    67    37    38    1
    68    37    36    2
    69    35    34    1
    70    35    36    1
    71    34    33    1
    72    11    10    2
    73    57    56    1
    74     3     4    2
    75     3     2    1
    76     2     1    1
    77    56    47   am
    78    48    47    2
    79    26    27    1
    80    26    25    1
    81    47    46    1
    82    27    28    2
    83    27    29   am
    84    33    30    1
    85    29    30    1
    86    30    31    1
    87    46    49    1
    88    46    45    1
    89    25    18   am
    90    49    50    1
    91    31    32    2
    92    50    51    1
    93    45    42   am
    94    18    19    2
    95    18    17    1
    96    16    17    1
    97   122   121    1
    98    43    42    2
    99    42    41    1
   100    51    52    1
   101    17    20    1
   102   121   120    1
   103    20    21    1
   104    44    41    1
   105    40    41    1
   106   120   119    1
   107    21    22    1
   108    52    53    2
   109    54    53    1
   110    53    55    1
   111    22    23   ar
   112    22    24   ar
   113   119   116    1
   114   116   115    1
   115   116   117    1
   116   117   118    2
