@<TRIPOS>MOLECULE
tmp/2fimA00.pdb
 96 92 0 0 0
SMALL
GASTEIGER

@<TRIPOS>ATOM
      1  N         71.2370    7.4370   26.0510 N.3    11  GLN11      -0.1231
      2  CA        71.4420    8.2920   24.8910 C.3    11  GLN11       0.1698
      3  C         71.6920    9.7290   25.3730 C.2    11  GLN11       0.2592
      4  O         71.1040   10.1800   26.3400 O.2    11  GLN11      -0.2718
      5  CB        70.2880    8.1940   23.8860 C.3    11  GLN11       0.0381
      6  CG        70.1650    6.7770   23.2990 C.3    11  GLN11       0.0905
      7  CD        69.5310    6.7680   21.9450 C.2    11  GLN11       0.2608
      8  OE1       70.0790    7.3170   20.9850 O.2    11  GLN11      -0.2717
      9  NE2       68.3770    6.1450   21.8420 N.am   11  GLN11      -0.0878
     10  N         72.6430   10.4080   24.7430 N.am   12  GLY12      -0.1957
     11  CA        72.9440   11.7990   25.0810 C.3    12  GLY12       0.1869
     12  C         74.0370   11.9590   26.1330 C.2    12  GLY12       0.2309
     13  O         74.5270   13.0590   26.3640 O.2    12  GLY12      -0.2863
     14  N         77.3220   -2.7100   13.2770 N.3   147  ILE147     -0.1245
     15  CA        77.7910   -1.3450   13.2090 C.3   147  ILE147      0.1561
     16  C         79.3120   -1.3670   13.0580 C.2   147  ILE147      0.2260
     17  O         79.9930   -2.1130   13.7420 O.2   147  ILE147     -0.2867
     18  CB        77.4100   -0.4820   14.4440 C.3   147  ILE147      0.0252
     19  CG1       75.8870   -0.4820   14.5820 C.3   147  ILE147      0.0019
     20  CG2       78.0370    0.9520   14.3070 C.3   147  ILE147      0.0019
     21  CD1       75.3530    0.0530   15.8830 C.3   147  ILE147      0.0001
     22  N         82.8480    0.8730   12.8900 N.3   149  LEU149     -0.1245
     23  CA        83.5080    2.0650   13.4680 C.3   149  LEU149      0.1561
     24  C         84.9940    2.0400   13.1700 C.2   149  LEU149      0.2260
     25  O         85.5530    0.9750   12.8860 O.2   149  LEU149     -0.2867
     26  CB        83.2540    2.1310   14.9740 C.3   149  LEU149      0.0270
     27  CG        81.8240    2.0790   15.4760 C.3   149  LEU149      0.0019
     28  CD1       81.7270    1.9180   16.9500 C.3   149  LEU149      0.0001
     29  CD2       80.9650    3.2910   15.0520 C.3   149  LEU149      0.0001
     30  N         81.9780    6.5920   13.9140 N.3   183  HIS183     -0.1241
     31  CA        81.3260    6.2130   12.6600 C.3   183  HIS183      0.1621
     32  C         81.7060    7.1700   11.5120 C.2   183  HIS183      0.2264
     33  O         81.8080    8.3930   11.6950 O.2   183  HIS183     -0.2867
     34  CB        79.8070    6.1590   12.8530 C.3   183  HIS183      0.0745
     35  CG        79.0900    5.3570   11.8170 C.ar  183  HIS183      0.0817
     36  ND1       78.6910    5.8670   10.5940 N.ar  183  HIS183     -0.2268
     37  CD2       78.7130    4.0570   11.8260 C.ar  183  HIS183      0.1154
     38  CE1       78.1630    4.8900    9.8740 C.ar  183  HIS183      0.1986
     39  NE2       78.1600    3.7820   10.6040 N.ar  183  HIS183     -0.2212
     40  N         79.5050   10.4040   10.9520 N.3   186  ASP186     -0.1239
     41  CA        79.6160   11.5680   11.8510 C.3   186  ASP186      0.1674
     42  C         80.9480   11.5780   12.6740 C.2   186  ASP186      0.2266
     43  O         80.9590   11.0600   13.7690 O.2   186  ASP186     -0.2867
     44  CB        78.4400   11.5910   12.8200 C.3   186  ASP186      0.1410
     45  CG        78.4000   12.8500   13.7000 C.2   186  ASP186      0.3668
     46  OD1       79.3030   13.7240   13.6250 O.co2 186  ASP186     -0.2456
     47  OD2       77.3800   12.9600   14.4340 O.co2 186  ASP186     -0.2456
     48  N         80.7500   12.5520   16.7470 N.3   189  TYR189     -0.1241
     49  CA        80.1080   11.7520   17.7600 C.3   189  TYR189      0.1605
     50  C         81.1350   10.7080   18.1630 C.2   189  TYR189      0.2264
     51  O         81.3920    9.7550   17.4130 O.2   189  TYR189     -0.2867
     52  CB        78.8270   11.1010   17.2320 C.3   189  TYR189      0.0534
     53  CG        78.0350   10.3380   18.2790 C.ar  189  TYR189     -0.0201
     54  CD1       77.2060   10.9840   19.1690 C.ar  189  TYR189     -0.0009
     55  CD2       78.1260    8.9670   18.3890 C.ar  189  TYR189     -0.0009
     56  CE1       76.4810   10.2530   20.1620 C.ar  189  TYR189      0.0417
     57  CE2       77.4440    8.2590   19.3680 C.ar  189  TYR189      0.0417
     58  CZ        76.5780    8.8930   20.2270 C.ar  189  TYR189      0.1957
     59  OH        75.8790    8.1230   21.1680 O.3   189  TYR189     -0.2866
     60  N         82.3060    7.7360   19.9550 N.3   191  VAL191     -0.1245
     61  CA        81.6990    6.5710   20.5590 C.3   191  VAL191      0.1561
     62  C         82.5850    6.0480   21.6650 C.2   191  VAL191      0.2260
     63  O         82.0920    5.5730   22.6630 O.2   191  VAL191     -0.2867
     64  CB        81.4720    5.4500   19.5010 C.3   191  VAL191      0.0252
     65  CG1       80.9170    4.1670   20.1870 C.3   191  VAL191      0.0019
     66  CG2       80.5760    5.9290   18.3670 C.3   191  VAL191      0.0019
     67  N         80.1290    6.2380   24.7480 N.3   207  ARG207     -0.1231
     68  CA        78.7700    6.6810   24.5180 C.3   207  ARG207      0.1694
     69  C         77.9450    5.5300   23.9120 C.2   207  ARG207      0.2592
     70  O         78.4680    4.5240   23.4030 O.2   207  ARG207     -0.2718
     71  CB        78.7880    7.8620   23.5300 C.3   207  ARG207      0.0321
     72  CG        79.6060    9.0550   24.0350 C.3   207  ARG207      0.0489
     73  CD        79.3490   10.2730   23.2210 C.3   207  ARG207      0.2205
     74  NE        78.0440   10.8560   23.5530 N.pl3 207  ARG207     -0.0865
     75  CZ        77.5280   11.9740   23.0220 C.cat 207  ARG207      0.5346
     76  NH1       78.1600   12.7030   22.0600 N.pl3 207  ARG207      0.1354
     77  NH2       76.3220   12.3660   23.4300 N.pl3 207  ARG207      0.1354
     78  N         76.6440    5.7550   23.8630 N.am  208  TYR208     -0.1963
     79  CA        75.7310    4.8590   23.1660 C.3   208  TYR208      0.1756
     80  C         76.2580    4.6770   21.7460 C.2   208  TYR208      0.2461
     81  O         76.6390    5.6460   21.0640 O.2   208  TYR208     -0.2730
     82  CB        74.3220    5.4250   23.2230 C.3   208  TYR208      0.0574
     83  CG        73.3090    4.5720   22.5260 C.ar  208  TYR208     -0.0198
     84  CD1       72.7110    3.5200   23.1800 C.ar  208  TYR208     -0.0009
     85  CD2       73.0310    4.7480   21.1910 C.ar  208  TYR208     -0.0009
     86  CE1       71.7290    2.6930   22.5400 C.ar  208  TYR208      0.0417
     87  CE2       72.0640    3.9440   20.5310 C.ar  208  TYR208      0.0417
     88  CZ        71.4520    2.8930   21.2340 C.ar  208  TYR208      0.1957
     89  OH        70.5520    2.0600   20.6300 O.3   208  TYR208     -0.2866
     90  N         76.2370    3.4400   21.2490 N.am  209  PRO209     -0.2727
     91  CA        75.6090    2.2030   21.7620 C.3   209  PRO209      0.1402
     92  C         76.4490    1.3240   22.6730 C.2   209  PRO209      0.2269
     93  O         75.9710    0.3060   23.0860 O.2   209  PRO209     -0.2865
     94  CB        75.2990    1.4510   20.4510 C.3   209  PRO209      0.0296
     95  CG        76.4060    1.7570   19.6020 C.3   209  PRO209      0.0237
     96  CD        76.7660    3.2310   19.8940 C.3   209  PRO209      0.0939
@<TRIPOS>BOND
     1    38    36   ar
     2    38    39   ar
     3    36    35   ar
     4    39    37   ar
     5    40    41    1
     6    32    33    2
     7    32    31    1
     8    35    37   ar
     9    35    34    1
    10    41    42    1
    11    41    44    1
    12    31    34    1
    13    31    30    1
    14    42    43    2
    15    44    45    1
    16    25    24    2
    17    22    23    1
    18    16    15    1
    19    16    17    2
    20    24    23    1
    21    15    14    1
    22    15    18    1
    23    23    26    1
    24    46    45   ar
    25    45    47   ar
    26    20    18    1
    27    18    19    1
    28    19    21    1
    29    26    27    1
    30    29    27    1
    31    27    28    1
    32    48    49    1
    33    52    49    1
    34    52    53    1
    35    51    50    2
    36    49    50    1
    37    53    55   ar
    38    53    54   ar
    39    66    64    1
    40    55    57   ar
    41    54    56   ar
    42    57    58   ar
    43    64    65    1
    44    64    61    1
    45    95    96    1
    46    95    94    1
    47    96    90    1
    48    60    61    1
    49    56    58   ar
    50    58    59    1
    51    94    91    1
    52    87    85   ar
    53    87    88   ar
    54    61    62    1
    55    89    88    1
    56     8     7    2
    57    81    80    2
    58    85    83   ar
    59    88    86   ar
    60    90    80   am
    61    90    91    1
    62    62    63    2
    63    80    79    1
    64    91    92    1
    65     9     7   am
    66     7     6    1
    67    76    75    1
    68    83    84   ar
    69    83    82    1
    70    86    84   ar
    71    92    93    2
    72    75    77    1
    73    75    74    2
    74    79    82    1
    75    79    78    1
    76    73    74    1
    77    73    72    1
    78     6     5    1
    79    70    69    2
    80    71    72    1
    81    71    68    1
    82    78    69   am
    83     5     2    1
    84    69    68    1
    85    68    67    1
    86    10    11    1
    87    10     3   am
    88     2     3    1
    89     2     1    1
    90    11    12    1
    91     3     4    2
    92    12    13    2
