@<TRIPOS>MOLECULE
tmp/2firB00.pdb
 180 178 0 0 0
SMALL
GASTEIGER

@<TRIPOS>ATOM
      1  N         21.3820   10.5800    3.8090 N.3    26  CYS26      -0.1235
      2  CA        21.7510   11.0230    5.1540 C.3    26  CYS26       0.1677
      3  C         20.5430   11.6190    5.8360 C.2    26  CYS26       0.2270
      4  O         19.4350   11.6350    5.2930 O.2    26  CYS26      -0.2867
      5  CB        22.8050   12.1470    5.0660 C.3    26  CYS26       0.0956
      6  SG        24.5450   11.6190    4.9480 S.3    26  CYS26      -0.0801
      7  N         30.2640   15.7790    4.9860 N.3    41  HIS41      -0.1226
      8  CA        30.7390   14.5140    4.4070 C.3    41  HIS41       0.1752
      9  C         29.6670   13.7220    3.6600 C.2    41  HIS41       0.2596
     10  O         29.9800   12.7590    2.9720 O.2    41  HIS41      -0.2718
     11  CB        31.4360   13.6170    5.4660 C.3    41  HIS41       0.0759
     12  CG        30.5040   12.7200    6.2320 C.ar   41  HIS41       0.0818
     13  ND1       30.0990   13.0140    7.5130 N.ar   41  HIS41      -0.2268
     14  CD2       29.8820   11.5660    5.9030 C.ar   41  HIS41       0.1154
     15  CE1       29.2530   12.0810    7.9350 C.ar   41  HIS41       0.1986
     16  NE2       29.0980   11.1940    6.9680 N.ar   41  HIS41      -0.2212
     17  N         28.4100   14.0960    3.8460 N.am   42  CYS42      -0.1970
     18  CA        27.3010   13.4270    3.2000 C.3    42  CYS42       0.1712
     19  C         27.3270   13.7020    1.6820 C.2    42  CYS42       0.2296
     20  O         26.7900   12.9250    0.8860 O.2    42  CYS42      -0.2864
     21  CB        25.9960   13.9460    3.8100 C.3    42  CYS42       0.0983
     22  SG        25.6340   13.2520    5.4660 S.3    42  CYS42      -0.0798
     23  N         36.7780   13.4560    2.8650 N.3    85  GLY85      -0.1210
     24  CA        37.4500   12.2960    3.4070 C.3    85  GLY85       0.1956
     25  C         37.8820   12.4710    4.8480 C.2    85  GLY85       0.2613
     26  O         38.3660   11.5240    5.4840 O.2    85  GLY85      -0.2717
     27  N         37.7800   13.6930    5.3500 N.am   86  THR86      -0.1938
     28  CA        38.1580   13.9580    6.7250 C.3    86  THR86       0.2028
     29  C         36.9450   14.2110    7.6210 C.2    86  THR86       0.2642
     30  O         35.7860   13.9000    7.2530 O.2    86  THR86      -0.2714
     31  CB        39.2050   15.0950    6.8470 C.3    86  THR86       0.1808
     32  OG1       38.6550   16.3440    6.4230 O.3    86  THR86      -0.2208
     33  CG2       40.4010   14.7850    5.9670 C.3    86  THR86       0.0379
     34  N         37.1970   14.8080    8.7810 N.am   87  THR87      -0.1950
     35  CA        36.1370   15.0270    9.7760 C.3    87  THR87       0.1897
     36  C         35.8610   16.4680   10.2140 C.2    87  THR87       0.2313
     37  O         34.7510   16.8060   10.6330 O.2    87  THR87      -0.2863
     38  CB        36.4720   14.1800   11.0470 C.3    87  THR87       0.1794
     39  OG1       37.8680   14.3310   11.3820 O.3    87  THR87      -0.2208
     40  CG2       36.1840   12.7320   10.7980 C.3    87  THR87       0.0378
     41  N         32.4340   19.5710    9.6500 N.3    90  ASP90      -0.1239
     42  CA        31.4150   18.7030    9.0950 C.3    90  ASP90       0.1674
     43  C         29.9850   19.2290    9.2780 C.2    90  ASP90       0.2266
     44  O         29.1710   18.6880   10.0470 O.2    90  ASP90      -0.2867
     45  CB        31.5930   17.2930    9.6600 C.3    90  ASP90       0.1410
     46  CG        31.0680   16.2190    8.7230 C.2    90  ASP90       0.3668
     47  OD1       30.7440   16.5480    7.5670 O.co2  90  ASP90      -0.2456
     48  OD2       30.9590   15.0640    9.1600 O.co2  90  ASP90      -0.2456
     49  N         46.0050    6.6470   13.9490 N.3   167  ASP167     -0.1225
     50  CA        45.3670    6.9810   12.6690 C.3   167  ASP167      0.1805
     51  C         43.9480    7.5640   12.8560 C.2   167  ASP167      0.2598
     52  O         43.3300    8.0510   11.8830 O.2   167  ASP167     -0.2718
     53  CB        45.4040    5.7830   11.6770 C.3   167  ASP167      0.1424
     54  CG        44.0010    5.2100   11.3320 C.2   167  ASP167      0.3668
     55  OD1       43.4640    5.5600   10.2520 O.co2 167  ASP167     -0.2456
     56  OD2       43.4820    4.3480   12.0910 O.co2 167  ASP167     -0.2456
     57  N         43.4630    7.5850   14.1020 N.am  168  SER168     -0.1938
     58  CA        42.1430    8.1470   14.4060 C.3   168  SER168      0.2040
     59  C         42.2210    9.6930   14.3460 C.2   168  SER168      0.2485
     60  O         43.2530   10.2820   14.6880 O.2   168  SER168     -0.2729
     61  CB        41.6460    7.6870   15.7850 C.3   168  SER168      0.2129
     62  OG        42.4300    8.2240   16.8400 O.3   168  SER168     -0.2179
     63  N         41.1300   10.3640   13.9150 N.am  169  PRO169     -0.2726
     64  CA        41.0550   11.8240   13.7960 C.3   169  PRO169      0.1402
     65  C         41.1430   12.5630   15.1210 C.2   169  PRO169      0.2269
     66  O         40.7690   12.0460   16.1630 O.2   169  PRO169     -0.2865
     67  CB        39.6770   12.0500   13.1730 C.3   169  PRO169      0.0296
     68  CG        39.3910   10.8150   12.4710 C.3   169  PRO169      0.0237
     69  CD        39.8910    9.7510   13.4210 C.3   169  PRO169      0.0939
     70  N         24.7880    4.2580   20.5770 N.3   186  ASP186     -0.1225
     71  CA        25.5790    5.2180   19.8020 C.3   186  ASP186      0.1805
     72  C         24.8170    5.5380   18.5240 C.2   186  ASP186      0.2598
     73  O         23.7880    4.9260   18.2510 O.2   186  ASP186     -0.2718
     74  CB        26.9420    4.5920   19.4340 C.3   186  ASP186      0.1424
     75  CG        27.9690    5.6050   18.9070 C.2   186  ASP186      0.3668
     76  OD1       27.7180    6.8110   18.9070 O.co2 186  ASP186     -0.2456
     77  OD2       29.0800    5.2000   18.5210 O.co2 186  ASP186     -0.2456
     78  N         25.2190    6.5850   17.8130 N.am  187  SER187     -0.1938
     79  CA        24.5990    6.8850   16.5310 C.3   187  SER187      0.2055
     80  C         25.4440    6.0240   15.5790 C.2   187  SER187      0.2643
     81  O         26.4500    5.4350   16.0070 O.2   187  SER187     -0.2714
     82  CB        24.6210    8.3920   16.2150 C.3   187  SER187      0.2130
     83  OG        25.8360    9.0380   16.5690 O.3   187  SER187     -0.2179
     84  N         25.0780    5.9120   14.3130 N.am  188  CYS188     -0.1953
     85  CA        25.8650    5.0280   13.4640 C.3   188  CYS188      0.1843
     86  C         25.9080    5.5080   12.0290 C.2   188  CYS188      0.2625
     87  O         25.4020    6.5990   11.7450 O.2   188  CYS188     -0.2714
     88  CB        25.2670    3.6240   13.5830 C.3   188  CYS188      0.0997
     89  SG        26.3360    2.2690   13.0350 S.3   188  CYS188     -0.0797
     90  N         26.5250    4.7300   11.1330 N.am  189  LYS189     -0.1963
     91  CA        26.6180    5.0870    9.7140 C.3   189  LYS189      0.1728
     92  C         25.2060    5.2480    9.1590 C.2   189  LYS189      0.2616
     93  O         24.3170    4.4420    9.4530 O.2   189  LYS189     -0.2715
     94  CB        27.3560    4.0220    8.9190 C.3   189  LYS189      0.0311
     95  CG        28.3690    4.5890    7.9350 C.3   189  LYS189      0.0038
     96  CD        29.8050    4.2120    8.3390 C.3   189  LYS189      0.0206
     97  CE        30.8570    4.7590    7.3420 C.3   189  LYS189      0.1093
     98  NZ        32.1860    4.0080    7.2850 N.3   189  LYS189     -0.1314
     99  N         25.0020    6.2970    8.3580 N.am  190  GLY190     -0.1955
    100  CA        23.6820    6.5700    7.8130 C.3   190  GLY190      0.1869
    101  C         22.8820    7.5480    8.6770 C.2   190  GLY190      0.2309
    102  O         21.7870    7.9710    8.3080 O.2   190  GLY190     -0.2863
    103  N         24.3940   10.2980    9.9020 N.3   192  SER192     -0.1217
    104  CA        25.0590   11.5720    9.6670 C.3   192  SER192      0.1889
    105  C         24.1070   12.6680    9.1830 C.2   192  SER192      0.2288
    106  O         23.2240   12.4250    8.3530 O.2   192  SER192     -0.2866
    107  CB        26.1950   11.4100    8.6700 C.3   192  SER192      0.2089
    108  OG        27.3120   10.8110    9.2930 O.3   192  SER192     -0.2183
    109  N         25.2860   14.6840   13.8100 N.3   210  VAL210     -0.1231
    110  CA        25.9100   13.3530   13.8180 C.3   210  VAL210      0.1692
    111  C         27.0390   13.4830   12.8020 C.2   210  VAL210      0.2593
    112  O         26.7810   13.7770   11.6240 O.2   210  VAL210     -0.2718
    113  CB        24.9010   12.2230   13.4450 C.3   210  VAL210      0.0266
    114  CG1       25.6260   10.8320   13.4400 C.3   210  VAL210      0.0020
    115  CG2       23.7340   12.1780   14.4610 C.3   210  VAL210      0.0020
    116  N         28.2750   13.2370   13.2450 N.am  211  SER211     -0.1938
    117  CA        29.4260   13.3900   12.3640 C.3   211  SER211      0.2055
    118  C         30.3050   12.1460   12.0990 C.2   211  SER211      0.2643
    119  O         30.4090   11.6990   10.9530 O.2   211  SER211     -0.2714
    120  CB        30.2610   14.5670   12.8440 C.3   211  SER211      0.2130
    121  OG        31.3980   14.7740   12.0240 O.3   211  SER211     -0.2179
    122  N         30.9380   11.5700   13.1210 N.am  212  TRP212     -0.1959
    123  CA        31.8010   10.3980   12.9320 C.3   212  TRP212      0.1771
    124  C         31.9860    9.6170   14.2290 C.2   212  TRP212      0.2620
    125  O         31.4880   10.0190   15.2890 O.2   212  TRP212     -0.2715
    126  CB        33.1880   10.8150   12.4240 C.3   212  TRP212      0.0590
    127  CG        34.0320   11.7290   13.3510 C.ar  212  TRP212      0.0006
    128  CD1       33.9400   13.0930   13.4640 C.ar  212  TRP212      0.0946
    129  CD2       35.1410   11.3430   14.1940 C.ar  212  TRP212      0.0152
    130  NE1       34.9180   13.5710   14.3000 N.ar  212  TRP212     -0.2442
    131  CE2       35.6680   12.5220   14.7590 C.ar  212  TRP212      0.0810
    132  CE3       35.7350   10.1220   14.5220 C.ar  212  TRP212      0.0012
    133  CZ2       36.7460   12.5090   15.6160 C.ar  212  TRP212      0.0191
    134  CZ3       36.7930   10.1190   15.3720 C.ar  212  TRP212      0.0001
    135  CH2       37.2950   11.3020   15.9120 C.ar  212  TRP212      0.0015
    136  N         32.7170    8.5130   14.1300 N.am  213  GLY213     -0.1940
    137  CA        32.9830    7.6750   15.2740 C.3   213  GLY213      0.2014
    138  C         33.8940    6.5510   14.8250 C.2   213  GLY213      0.2639
    139  O         34.2110    6.4710   13.6490 O.2   213  GLY213     -0.2714
    140  N         34.4690    5.8350   15.7890 N.am  214  GLN214     -0.1963
    141  CA        35.3530    4.6900   15.5820 C.3   214  GLN214      0.1733
    142  C         34.4480    3.4750   15.7440 C.2   214  GLN214      0.2617
    143  O         34.4240    2.8560   16.7960 O.2   214  GLN214     -0.2715
    144  CB        36.4180    4.6890   16.6660 C.3   214  GLN214      0.0408
    145  CG        37.3170    3.4700   16.7120 C.3   214  GLN214      0.0908
    146  CD        38.4460    3.5460   15.6860 C.2   214  GLN214      0.2608
    147  OE1       39.3690    4.3790   15.7980 O.2   214  GLN214     -0.2717
    148  NE2       38.3740    2.6860   14.6770 N.am  214  GLN214     -0.0878
    149  N         33.6700    3.1560   14.7180 N.am  215  GLY215     -0.1940
    150  CA        32.7720    2.0270   14.8050 C.3   215  GLY215      0.2014
    151  C         31.6450    2.4920   15.6910 C.2   215  GLY215      0.2639
    152  O         31.8440    3.3520   16.5500 O.2   215  GLY215     -0.2714
    153  N         30.4630    1.9100   15.5140 N.am  216  CYS216     -0.1967
    154  CA        29.2900    2.2630   16.2940 C.3   216  CYS216      0.1712
    155  C         29.1990    1.4360   17.5400 C.2   216  CYS216      0.2296
    156  O         29.1420    0.2150   17.4760 O.2   216  CYS216     -0.2864
    157  CB        28.0350    2.0490   15.4800 C.3   216  CYS216      0.0983
    158  SG        28.1830    2.6740   13.7730 S.3   216  CYS216     -0.0798
    159  N         33.2310    7.0220   22.0450 N.3   222  PHE222     -0.1227
    160  CA        31.9980    7.8220   22.0350 C.3   222  PHE222      0.1736
    161  C         31.6920    8.3060   20.5940 C.2   222  PHE222      0.2596
    162  O         32.5750    8.2850   19.7140 O.2   222  PHE222     -0.2718
    163  CB        32.1780    9.0810   22.9240 C.3   222  PHE222      0.0547
    164  CG        32.4510    8.7730   24.3700 C.ar  222  PHE222     -0.0202
    165  CD1       31.4230    8.6090   25.2600 C.ar  222  PHE222     -0.0042
    166  CD2       33.7270    8.5910   24.8220 C.ar  222  PHE222     -0.0042
    167  CE1       31.6700    8.2490   26.5680 C.ar  222  PHE222     -0.0003
    168  CE2       33.9650    8.2360   26.1350 C.ar  222  PHE222     -0.0003
    169  CZ        32.9310    8.0620   26.9960 C.ar  222  PHE222     -0.0000
    170  N         30.4520    8.7380   20.3610 N.am  223  GLY223     -0.1942
    171  CA        30.0870    9.3030   19.0650 C.3   223  GLY223      0.2014
    172  C         30.6230   10.7270   19.0570 C.2   223  GLY223      0.2638
    173  O         30.7340   11.3520   20.1180 O.2   223  GLY223     -0.2714
    174  N         31.0780   11.2090   17.8980 N.am  224  VAL224     -0.1977
    175  CA        31.6240   12.5760   17.7870 C.3   224  VAL224      0.1596
    176  C         30.6800   13.4160   16.9220 C.2   224  VAL224      0.2287
    177  O         30.3410   13.0300   15.8060 O.2   224  VAL224     -0.2864
    178  CB        33.0200   12.5830   17.2340 C.3   224  VAL224      0.0276
    179  CG1       33.5080   13.9910   17.0610 C.3   224  VAL224      0.0022
    180  CG2       33.9530   11.8260   18.2160 C.3   224  VAL224      0.0022
@<TRIPOS>BOND
     1    20    19    2
     2    19    18    1
     3    23    24    1
     4    10     9    2
     5    18    21    1
     6    18    17    1
     7    24    25    1
     8     9    17   am
     9     9     8    1
    10     1     2    1
    11    21    22    1
    12     8     7    1
    13     8    11    1
    14    25    27   am
    15    25    26    2
    16     6     5    1
    17     6    22    1
    18     5     2    1
    19     2     3    1
    20     4     3    2
    21    27    28    1
    22    11    12    1
    23    14    12   ar
    24    14    16   ar
    25    33    31    1
    26    12    13   ar
    27    32    31    1
    28    28    31    1
    29    28    29    1
    30    16    15   ar
    31    30    29    2
    32    98    97    1
    33    97    96    1
    34    13    15   ar
    35    47    46   ar
    36    29    34   am
    37   100    99    1
    38   100   101    1
    39    95    96    1
    40    95    94    1
    41   102   101    2
    42   106   105    2
    43    99    92   am
    44   107   108    1
    45   107   104    1
    46    46    48   ar
    47    46    45    1
    48    34    35    1
    49    94    91    1
    50    42    43    1
    51    42    41    1
    52    42    45    1
    53    92    93    2
    54    92    91    1
    55   105   104    1
    56    43    44    2
    57   104   103    1
    58    91    90    1
    59    35    36    1
    60    35    38    1
    61    36    37    2
    62    55    54   ar
    63    40    38    1
    64   119   118    2
    65    38    39    1
    66    90    86   am
    67    54    53    1
    68    54    56   ar
    69   112   111    2
    70    53    50    1
    71    87    86    2
    72    52    51    2
    73   121   120    1
    74    86    85    1
    75   118   117    1
    76   118   122   am
    77   117   120    1
    78   117   116    1
    79   126   123    1
    80   126   127    1
    81    68    67    1
    82    68    69    1
    83    50    51    1
    84    50    49    1
    85   111   116   am
    86   111   110    1
    87    51    57   am
    88   123   122    1
    89   123   124    1
    90    89    88    1
    91    89   158    1
    92    67    64    1
    93   127   128   ar
    94   127   129   ar
    95    69    63    1
    96   114   113    1
    97   113   110    1
    98   113   115    1
    99    85    88    1
   100    85    84    1
   101   128   130   ar
   102   139   138    2
   103   158   157    1
   104    64    63    1
   105    64    65    1
   106   109   110    1
   107    63    59   am
   108    57    58    1
   109   136   124   am
   110   136   137    1
   111   129   132   ar
   112   129   131   ar
   113   124   125    2
   114   130   131   ar
   115    84    80   am
   116    59    58    1
   117    59    60    2
   118    58    61    1
   119   132   134   ar
   120   148   146   am
   121   149   150    1
   122   149   142   am
   123   131   133   ar
   124   150   151    1
   125   138   137    1
   126   138   140   am
   127    65    66    2
   128   134   135   ar
   129   157   154    1
   130   153   151   am
   131   153   154    1
   132    80    81    2
   133    80    79    1
   134   141   142    1
   135   141   140    1
   136   141   144    1
   137   133   135   ar
   138   146   147    2
   139   146   145    1
   140   151   152    2
   141   142   143    2
   142    61    62    1
   143   177   176    2
   144    82    79    1
   145    82    83    1
   146   154   155    1
   147    79    78    1
   148   144   145    1
   149   176   175    1
   150   179   178    1
   151   178   175    1
   152   178   180    1
   153   156   155    2
   154   175   174    1
   155    78    72   am
   156   174   172   am
   157    73    72    2
   158    77    75   ar
   159    72    71    1
   160    76    75   ar
   161    75    74    1
   162   172   171    1
   163   172   173    2
   164   171   170    1
   165    74    71    1
   166   162   161    2
   167    71    70    1
   168   170   161   am
   169   161   160    1
   170   160   159    1
   171   160   163    1
   172   163   164    1
   173   164   166   ar
   174   164   165   ar
   175   166   168   ar
   176   165   167   ar
   177   168   169   ar
   178   167   169   ar
