@<TRIPOS>MOLECULE
tmp/2fixA00.pdb
 124 119 0 0 0
SMALL
GASTEIGER

@<TRIPOS>ATOM
      1  N         40.0450   -5.2080   27.6000 N.3     8  PHE8       -0.1227
      2  CA        40.7530   -6.4590   27.2850 C.3     8  PHE8        0.1736
      3  C         41.9960   -6.1790   26.4490 C.2     8  PHE8        0.2595
      4  O         42.9170   -6.9950   26.3470 O.2     8  PHE8       -0.2718
      5  CB        39.7810   -7.3950   26.5550 C.3     8  PHE8        0.0547
      6  CG        40.4380   -8.4720   25.7390 C.ar    8  PHE8       -0.0202
      7  CD1       40.9440   -8.1950   24.4770 C.ar    8  PHE8       -0.0042
      8  CD2       40.5200   -9.7700   26.2150 C.ar    8  PHE8       -0.0042
      9  CE1       41.5160   -9.1960   23.7080 C.ar    8  PHE8       -0.0003
     10  CE2       41.0910  -10.7760   25.4480 C.ar    8  PHE8       -0.0003
     11  CZ        41.5880  -10.4900   24.1940 C.ar    8  PHE8       -0.0000
     12  N         42.0010   -5.0000   25.8530 N.am    9  VAL9       -0.1966
     13  CA        43.1120   -4.5570   25.0480 C.3     9  VAL9        0.1727
     14  C         44.1270   -4.0160   26.0280 C.2     9  VAL9        0.2616
     15  O         45.2890   -3.8330   25.6920 O.2     9  VAL9       -0.2715
     16  CB        42.7120   -3.4080   24.1320 C.3     9  VAL9        0.0290
     17  CG1       43.9150   -2.9370   23.3540 C.3     9  VAL9        0.0023
     18  CG2       41.6120   -3.8380   23.2030 C.3     9  VAL9        0.0023
     19  N         43.6690   -3.7350   27.2420 N.am   10  MET10      -0.1977
     20  CA        44.5480   -3.2060   28.2760 C.3    10  MET10       0.1605
     21  C         45.2290   -4.4020   28.9180 C.2    10  MET10       0.2287
     22  O         46.4540   -4.4400   29.0590 O.2    10  MET10      -0.2864
     23  CB        43.7480   -2.4290   29.3320 C.3    10  MET10       0.0413
     24  CG        42.8060   -1.3530   28.7710 C.3    10  MET10       0.0598
     25  SD        42.2440   -0.1210   30.0000 S.3    10  MET10      -0.1393
     26  CE        43.2260    1.2980   29.5480 C.3    10  MET10       0.0692
     27  N         45.4490   -7.7550   27.8170 N.3    12  GLU12      -0.1231
     28  CA        46.3780   -8.4520   26.9080 C.3    12  GLU12       0.1699
     29  C         47.6030   -7.5650   26.6960 C.2    12  GLU12       0.2593
     30  O         48.7240   -8.0270   26.6210 O.2    12  GLU12      -0.2718
     31  CB        45.7380   -8.7320   25.5340 C.3    12  GLU12       0.0402
     32  CG        44.7560   -9.9340   25.4060 C.3    12  GLU12       0.1161
     33  CD        45.4190  -11.3180   25.4250 C.2    12  GLU12       0.3649
     34  OE1       45.8930  -11.7590   26.4980 O.co2  12  GLU12      -0.2457
     35  OE2       45.4470  -11.9630   24.3560 O.co2  12  GLU12      -0.2457
     36  N         47.3540   -6.2710   26.6000 N.am   13  GLY13      -0.1942
     37  CA        48.4190   -5.3270   26.4150 C.3    13  GLY13       0.2014
     38  C         49.4520   -5.5830   27.5050 C.2    13  GLY13       0.2638
     39  O         50.6360   -5.8340   27.2080 O.2    13  GLY13      -0.2714
     40  N         49.0300   -5.4830   28.7740 N.am   14  ARG14      -0.1977
     41  CA        49.9700   -5.7180   29.8850 C.3    14  ARG14       0.1597
     42  C         50.5820   -7.0630   29.6110 C.2    14  ARG14       0.2287
     43  O         51.8060   -7.1600   29.3690 O.2    14  ARG14      -0.2864
     44  CB        49.2750   -5.6810   31.2860 C.3    14  ARG14       0.0334
     45  CG        49.5700   -4.4050   32.2060 C.3    14  ARG14       0.0492
     46  CD        48.4580   -4.1550   33.2900 C.3    14  ARG14       0.2205
     47  NE        48.3350   -5.1820   34.3410 N.pl3  14  ARG14      -0.0865
     48  CZ        47.4250   -5.1450   35.3160 C.cat  14  ARG14       0.5346
     49  NH1       47.3710   -6.1080   36.2240 N.pl3  14  ARG14       0.1354
     50  NH2       46.5610   -4.1390   35.3870 N.pl3  14  ARG14       0.1354
     51  N         51.5110   -8.6850   27.5000 N.3    16  ALA16      -0.1231
     52  CA        52.6050   -8.8560   26.5410 C.3    16  ALA16       0.1694
     53  C         53.8060   -7.9200   26.7440 C.2    16  ALA16       0.2592
     54  O         54.8980   -8.1940   26.2260 O.2    16  ALA16      -0.2718
     55  CB        52.0990   -8.7370   25.1260 C.3    16  ALA16       0.0304
     56  N         53.6090   -6.8410   27.5090 N.am   17  ARG17      -0.1966
     57  CA        54.6590   -5.8640   27.8290 C.3    17  ARG17       0.1729
     58  C         55.3970   -5.2270   26.6320 C.2    17  ARG17       0.2617
     59  O         56.5440   -5.5730   26.3360 O.2    17  ARG17      -0.2715
     60  CB        55.6600   -6.5110   28.8030 C.3    17  ARG17       0.0348
     61  CG        55.0060   -7.0680   30.0840 C.3    17  ARG17       0.0492
     62  CD        55.8310   -8.2120   30.6870 C.3    17  ARG17       0.2205
     63  NE        56.0970   -9.2640   29.6950 N.pl3  17  ARG17      -0.0865
     64  CZ        56.7590  -10.4020   29.9270 C.cat  17  ARG17       0.5346
     65  NH1       57.2460  -10.6820   31.1310 N.pl3  17  ARG17       0.1354
     66  NH2       56.9440  -11.2730   28.9420 N.pl3  17  ARG17       0.1354
     67  N         54.7900   -4.6990   25.5960 N.am   18  GLY18      -0.1940
     68  CA        55.3450   -3.9680   24.4640 C.3    18  GLY18       0.2014
     69  C         55.4220   -2.4600   24.6450 C.2    18  GLY18       0.2640
     70  O         55.5930   -1.9680   25.7450 O.2    18  GLY18      -0.2714
     71  N         55.2680   -1.7360   23.5400 N.am   19  THR19      -0.1936
     72  CA        55.3480   -0.2630   23.5080 C.3    19  THR19       0.2028
     73  C         54.1350    0.4430   24.1120 C.2    19  THR19       0.2642
     74  O         54.2810    1.3610   24.9120 O.2    19  THR19      -0.2714
     75  CB        55.7130    0.2280   22.0870 C.3    19  THR19       0.1808
     76  OG1       54.8970   -0.4410   21.1100 O.3    19  THR19      -0.2208
     77  CG2       57.1880   -0.0300   21.7900 C.3    19  THR19       0.0379
     78  N         52.9440    0.0310   23.7040 N.am   20  GLY20      -0.1954
     79  CA        51.7400    0.6640   24.2000 C.3    20  GLY20       0.1869
     80  C         51.0980    1.2270   22.9520 C.2    20  GLY20       0.2309
     81  O         49.8840    1.4160   22.8940 O.2    20  GLY20      -0.2863
     82  N         50.2520   -0.1100   20.1470 N.3    22  LEU22      -0.1231
     83  CA        49.1420   -0.9260   19.6560 C.3    22  LEU22       0.1693
     84  C         47.8420   -0.6690   20.4260 C.2    22  LEU22       0.2592
     85  O         46.7590   -0.5900   19.8610 O.2    22  LEU22      -0.2718
     86  CB        49.5380   -2.3980   19.7810 C.3    22  LEU22       0.0284
     87  CG        48.4240   -3.3430   19.3230 C.3    22  LEU22       0.0019
     88  CD1       47.9230   -3.0150   17.9150 C.3    22  LEU22       0.0001
     89  CD2       48.8640   -4.8070   19.2900 C.3    22  LEU22       0.0001
     90  N         48.0580   -0.4240   21.7140 N.am   23  THR23      -0.1953
     91  CA        46.9570   -0.0710   22.6040 C.3    23  THR23       0.1897
     92  C         46.2230    1.1460   22.1240 C.2    23  THR23       0.2313
     93  O         45.0660    1.0750   21.7160 O.2    23  THR23      -0.2863
     94  CB        47.4340    0.2530   24.0040 C.3    23  THR23       0.1794
     95  OG1       47.7320   -0.9530   24.7050 O.3    23  THR23      -0.2208
     96  CG2       46.3590    1.0350   24.7340 C.3    23  THR23       0.0378
     97  N         44.3010    0.4030   19.0870 N.3    26  LEU26      -0.1245
     98  CA        42.9780   -0.1650   19.2640 C.3    26  LEU26       0.1561
     99  C         41.9960    0.8350   19.8500 C.2    26  LEU26       0.2260
    100  O         40.9470    1.0760   19.2640 O.2    26  LEU26      -0.2867
    101  CB        43.0390   -1.4100   20.1500 C.3    26  LEU26       0.0270
    102  CG        43.6880   -2.6570   19.5540 C.3    26  LEU26       0.0019
    103  CD1       43.4400   -3.8230   20.4590 C.3    26  LEU26       0.0001
    104  CD2       43.0980   -2.9520   18.2080 C.3    26  LEU26       0.0001
    105  N         53.7460    0.9900   13.5680 N.3    96  TYR96      -0.1241
    106  CA        52.7070    0.1140   13.0130 C.3    96  TYR96       0.1605
    107  C         52.2020    0.6110   11.6570 C.2    96  TYR96       0.2264
    108  O         52.4880    1.7340   11.2730 O.2    96  TYR96      -0.2867
    109  CB        51.5480   -0.0100   14.0050 C.3    96  TYR96       0.0534
    110  CG        51.8120   -1.0370   15.0770 C.ar   96  TYR96      -0.0201
    111  CD1       52.0110   -2.3730   14.7450 C.ar   96  TYR96      -0.0009
    112  CD2       51.9230   -0.6750   16.4130 C.ar   96  TYR96      -0.0009
    113  CE1       52.3210   -3.3240   15.7140 C.ar   96  TYR96       0.0417
    114  CE2       52.2350   -1.6260   17.3950 C.ar   96  TYR96       0.0417
    115  CZ        52.4330   -2.9470   17.0330 C.ar   96  TYR96       0.1957
    116  OH        52.7460   -3.8930   17.9800 O.3    96  TYR96      -0.2866
    117  N         42.6880  -10.7170   16.7920 N.3   160  MET160     -0.1245
    118  CA        44.1140  -10.7190   17.1280 C.3   160  MET160      0.1570
    119  C         44.7700  -12.0890   17.0890 C.2   160  MET160      0.2261
    120  O         44.1310  -13.0790   16.7500 O.2   160  MET160     -0.2867
    121  CB        44.3320  -10.1110   18.5040 C.3   160  MET160      0.0387
    122  CG        44.1500   -8.6170   18.5510 C.3   160  MET160      0.0595
    123  SD        44.8340   -8.0320   20.0770 S.3   160  MET160     -0.1393
    124  CE        46.5850   -8.4560   19.8370 C.3   160  MET160      0.0692
@<TRIPOS>BOND
     1   108   107    2
     2   107   106    1
     3   106   105    1
     4   106   109    1
     5   109   110    1
     6   111   110   ar
     7   111   113   ar
     8   110   112   ar
     9   113   115   ar
    10   112   114   ar
    11   120   119    2
    12   117   118    1
    13   115   114   ar
    14   115   116    1
    15   119   118    1
    16   118   121    1
    17    88    87    1
    18   104   102    1
    19   121   122    1
    20   122   123    1
    21    97    98    1
    22   100    99    2
    23    98    99    1
    24    98   101    1
    25    89    87    1
    26    87    86    1
    27   102   101    1
    28   102   103    1
    29    83    86    1
    30    83    82    1
    31    83    84    1
    32   124   123    1
    33    85    84    2
    34    84    90   am
    35    76    75    1
    36    90    91    1
    37    93    92    2
    38    77    75    1
    39    75    72    1
    40    92    91    1
    41    91    94    1
    42    81    80    2
    43    80    79    1
    44    18    16    1
    45    17    16    1
    46    72    71    1
    47    72    73    1
    48    71    69   am
    49    78    73   am
    50    78    79    1
    51     9    11   ar
    52     9     7   ar
    53    94    95    1
    54    94    96    1
    55    73    74    2
    56    16    13    1
    57    11    10   ar
    58    35    33   ar
    59    68    69    1
    60    68    67    1
    61     7     6   ar
    62    69    70    2
    63    13    12    1
    64    13    14    1
    65    55    52    1
    66    32    33    1
    67    32    31    1
    68    33    34   ar
    69    10     8   ar
    70    31    28    1
    71    67    58   am
    72    15    14    2
    73     6     8   ar
    74     6     5    1
    75    12     3   am
    76    14    19   am
    77    54    53    2
    78    59    58    2
    79     4     3    2
    80    37    36    1
    81    37    38    1
    82     3     2    1
    83    52    53    1
    84    52    51    1
    85     5     2    1
    86    36    29   am
    87    30    29    2
    88    58    57    1
    89    29    28    1
    90    53    56   am
    91    28    27    1
    92    39    38    2
    93    19    20    1
    94     2     1    1
    95    38    40   am
    96    56    57    1
    97    57    60    1
    98    20    21    1
    99    20    23    1
   100    24    23    1
   101    24    25    1
   102    40    41    1
   103    60    61    1
   104    21    22    2
   105    66    64    1
   106    43    42    2
   107    26    25    1
   108    42    41    1
   109    63    64    2
   110    63    62    1
   111    41    44    1
   112    64    65    1
   113    61    62    1
   114    44    45    1
   115    45    46    1
   116    46    47    1
   117    47    48    2
   118    48    50    1
   119    48    49    1
