@<TRIPOS>MOLECULE
tmp/2fj0A00.pdb
 205 200 0 0 0
SMALL
GASTEIGER

@<TRIPOS>ATOM
      1  N         24.9440   45.5110   73.8870 N.3    71  LEU71      -0.1231
      2  CA        24.7640   46.9310   73.5960 C.3    71  LEU71       0.1693
      3  C         23.4070   47.4500   73.1510 C.2    71  LEU71       0.2592
      4  O         22.8770   48.4000   73.7190 O.2    71  LEU71      -0.2718
      5  CB        25.7900   47.3750   72.5370 C.3    71  LEU71       0.0284
      6  CG        25.6160   48.7900   71.9490 C.3    71  LEU71       0.0019
      7  CD1       25.9110   49.8280   73.0320 C.3    71  LEU71       0.0001
      8  CD2       26.5400   48.9810   70.7330 C.3    71  LEU71       0.0001
      9  N         22.8580   46.8420   72.1120 N.am   72  TYR72      -0.1976
     10  CA        21.6180   47.3210   71.5380 C.3    72  TYR72       0.1639
     11  C         20.4270   47.2280   72.4220 C.2    72  TYR72       0.2290
     12  O         19.5240   48.0590   72.3270 O.2    72  TYR72      -0.2864
     13  CB        21.3700   46.6200   70.2150 C.3    72  TYR72       0.0560
     14  CG        22.4610   46.9470   69.2370 C.ar   72  TYR72      -0.0198
     15  CD1       23.4640   46.0190   68.9390 C.ar   72  TYR72      -0.0009
     16  CD2       22.5210   48.2070   68.6330 C.ar   72  TYR72      -0.0009
     17  CE1       24.4990   46.3390   68.0590 C.ar   72  TYR72       0.0417
     18  CE2       23.5530   48.5330   67.7430 C.ar   72  TYR72       0.0417
     19  CZ        24.5310   47.5930   67.4600 C.ar   72  TYR72       0.1957
     20  OH        25.4960   47.8830   66.5360 O.3    72  TYR72      -0.2866
     21  N         28.5120   46.5050   65.7820 N.3   111  GLY111     -0.1210
     22  CA        28.2240   45.6270   66.9030 C.3   111  GLY111      0.1956
     23  C         29.5380   45.0580   67.4280 C.2   111  GLY111      0.2612
     24  O         29.5590   43.9530   67.9650 O.2   111  GLY111     -0.2717
     25  N         30.6280   45.8070   67.2460 N.am  112  GLY112     -0.1956
     26  CA        31.9320   45.3740   67.7160 C.3   112  GLY112      0.1869
     27  C         32.4540   44.0430   67.1860 C.2   112  GLY112      0.2309
     28  O         33.3730   43.4640   67.7910 O.2   112  GLY112     -0.2863
     29  N         28.3240   41.2610   67.9890 N.3   115  PHE115     -0.1241
     30  CA        26.8730   41.1870   68.0370 C.3   115  PHE115      0.1605
     31  C         26.2470   42.1200   67.0150 C.2   115  PHE115      0.2264
     32  O         26.9580   42.7620   66.2320 O.2   115  PHE115     -0.2867
     33  CB        26.4030   41.5320   69.4360 C.3   115  PHE115      0.0534
     34  CG        27.1100   42.7160   70.0230 C.ar  115  PHE115     -0.0203
     35  CD1       26.6620   44.0130   69.7660 C.ar  115  PHE115     -0.0042
     36  CD2       28.2660   42.5380   70.7990 C.ar  115  PHE115     -0.0042
     37  CE1       27.3580   45.1260   70.2750 C.ar  115  PHE115     -0.0003
     38  CE2       28.9700   43.6360   71.3100 C.ar  115  PHE115     -0.0003
     39  CZ        28.5150   44.9370   71.0450 C.ar  115  PHE115     -0.0000
     40  N         29.0700   50.9680   59.7740 N.3   190  GLN190     -0.1231
     41  CA        29.2520   51.8910   60.8780 C.3   190  GLN190      0.1698
     42  C         29.8490   51.0430   61.9990 C.2   190  GLN190      0.2593
     43  O         29.5290   49.8560   62.1530 O.2   190  GLN190     -0.2718
     44  CB        27.9380   52.6360   61.2430 C.3   190  GLN190      0.0381
     45  CG        27.1140   52.1070   62.3720 C.3   190  GLN190      0.0905
     46  CD        27.5930   52.5220   63.7810 C.2   190  GLN190      0.2608
     47  OE1       28.0820   53.6330   63.9990 O.2   190  GLN190     -0.2717
     48  NE2       27.4050   51.6220   64.7500 N.am  190  GLN190     -0.0878
     49  N         30.7740   51.6460   62.7370 N.am  191  SER191     -0.1938
     50  CA        31.5020   50.9600   63.8180 C.3   191  SER191      0.2055
     51  C         32.2000   49.7440   63.2240 C.2   191  SER191      0.2642
     52  O         32.7050   49.8310   62.0980 O.2   191  SER191     -0.2714
     53  CB        30.2870   50.9770   64.6920 C.3   191  SER191      0.2130
     54  OG        29.7260   50.9240   65.9800 O.3   191  SER191     -0.2179
     55  N         32.2530   48.6380   63.9560 N.am  192  ALA192     -0.1977
     56  CA        32.9050   47.4360   63.4290 C.3   192  ALA192      0.1597
     57  C         32.5320   47.3180   61.9460 C.2   192  ALA192      0.2287
     58  O         33.3970   47.0380   61.1020 O.2   192  ALA192     -0.2864
     59  CB        32.4450   46.2150   64.1950 C.3   192  ALA192      0.0319
     60  N         39.6740   50.9920   68.6970 N.3   224  PHE224     -0.1241
     61  CA        38.7500   50.2140   69.5140 C.3   224  PHE224      0.1605
     62  C         38.9260   48.7130   69.3500 C.2   224  PHE224      0.2264
     63  O         38.2340   47.9290   70.0060 O.2   224  PHE224     -0.2867
     64  CB        37.3010   50.6160   69.2430 C.3   224  PHE224      0.0534
     65  CG        36.7800   50.2060   67.8970 C.ar  224  PHE224     -0.0203
     66  CD1       36.3930   48.8860   67.6490 C.ar  224  PHE224     -0.0042
     67  CD2       36.5960   51.1630   66.8910 C.ar  224  PHE224     -0.0042
     68  CE1       35.8240   48.5300   66.4310 C.ar  224  PHE224     -0.0003
     69  CE2       36.0250   50.8120   65.6610 C.ar  224  PHE224     -0.0003
     70  CZ        35.6380   49.4900   65.4370 C.ar  224  PHE224     -0.0000
     71  N         36.4330   41.9230   78.3250 N.3   276  PHE276     -0.1227
     72  CA        36.7970   43.0440   77.4490 C.3   276  PHE276      0.1736
     73  C         35.7330   44.1360   77.2880 C.2   276  PHE276      0.2596
     74  O         35.9900   45.1660   76.6500 O.2   276  PHE276     -0.2718
     75  CB        37.1470   42.5430   76.0590 C.3   276  PHE276      0.0547
     76  CG        38.2870   41.5980   76.0260 C.ar  276  PHE276     -0.0202
     77  CD1       38.0770   40.2560   75.7530 C.ar  276  PHE276     -0.0042
     78  CD2       39.5780   42.0480   76.2530 C.ar  276  PHE276     -0.0042
     79  CE1       39.1470   39.3670   75.7010 C.ar  276  PHE276     -0.0003
     80  CE2       40.6620   41.1710   76.2070 C.ar  276  PHE276     -0.0003
     81  CZ        40.4460   39.8240   75.9310 C.ar  276  PHE276     -0.0000
     82  N         34.5420   43.9110   77.8280 N.am  277  GLY277     -0.1942
     83  CA        33.5110   44.9200   77.7250 C.3   277  GLY277      0.2014
     84  C         32.5370   44.8190   76.5640 C.2   277  GLY277      0.2639
     85  O         31.4330   44.2850   76.7300 O.2   277  GLY277     -0.2714
     86  N         32.9380   45.3160   75.3920 N.am  278  LEU278     -0.1963
     87  CA        32.0660   45.3340   74.2170 C.3   278  LEU278      0.1728
     88  C         32.5440   44.5730   73.0080 C.2   278  LEU278      0.2616
     89  O         31.9550   44.6950   71.9460 O.2   278  LEU278     -0.2715
     90  CB        31.8240   46.7740   73.7750 C.3   278  LEU278      0.0311
     91  CG        31.0610   47.6970   74.7230 C.3   278  LEU278      0.0022
     92  CD1       31.2380   49.1490   74.2930 C.3   278  LEU278      0.0001
     93  CD2       29.6030   47.3230   74.7120 C.3   278  LEU278      0.0001
     94  N         33.6230   43.8140   73.1430 N.am  279  THR279     -0.1951
     95  CA        34.1450   43.0580   72.0020 C.3   279  THR279      0.1897
     96  C         34.8250   41.7830   72.4650 C.2   279  THR279      0.2313
     97  O         35.1390   41.6250   73.6440 O.2   279  THR279     -0.2863
     98  CB        35.2290   43.8520   71.2090 C.3   279  THR279      0.1794
     99  OG1       36.3370   44.1240   72.0710 O.3   279  THR279     -0.2208
    100  CG2       34.6950   45.1480   70.6650 C.3   279  THR279      0.0378
    101  N         27.9890   55.1070   75.1050 N.3   326  PHE326     -0.1241
    102  CA        28.3640   53.9030   75.8530 C.3   326  PHE326      0.1605
    103  C         28.3330   54.0090   77.3820 C.2   326  PHE326      0.2264
    104  O         28.5400   53.0010   78.0680 O.2   326  PHE326     -0.2867
    105  CB        29.7820   53.4490   75.4650 C.3   326  PHE326      0.0534
    106  CG        29.9500   53.1100   74.0090 C.ar  326  PHE326     -0.0203
    107  CD1       31.0210   53.6370   73.2820 C.ar  326  PHE326     -0.0042
    108  CD2       29.0670   52.2380   73.3720 C.ar  326  PHE326     -0.0042
    109  CE1       31.2100   53.2980   71.9470 C.ar  326  PHE326     -0.0003
    110  CE2       29.2410   51.8860   72.0300 C.ar  326  PHE326     -0.0003
    111  CZ        30.3210   52.4180   71.3120 C.ar  326  PHE326     -0.0000
    112  N         29.6540   51.3840   80.1280 N.3   330  PHE330     -0.1241
    113  CA        30.9380   51.6710   80.7590 C.3   330  PHE330      0.1605
    114  C         30.7640   51.4570   82.2610 C.2   330  PHE330      0.2264
    115  O         31.6260   50.9020   82.9300 O.2   330  PHE330     -0.2867
    116  CB        31.3710   53.0920   80.4430 C.3   330  PHE330      0.0534
    117  CG        31.9340   53.2550   79.0530 C.ar  330  PHE330     -0.0203
    118  CD1       32.1530   54.5240   78.5130 C.ar  330  PHE330     -0.0042
    119  CD2       32.2680   52.1380   78.2780 C.ar  330  PHE330     -0.0042
    120  CE1       32.6990   54.6820   77.2130 C.ar  330  PHE330     -0.0003
    121  CE2       32.8120   52.2810   76.9860 C.ar  330  PHE330     -0.0003
    122  CZ        33.0260   53.5580   76.4560 C.ar  330  PHE330     -0.0000
    123  N         30.4280   47.6170   83.2910 N.3   333  ILE333     -0.1245
    124  CA        31.7110   46.9390   83.3910 C.3   333  ILE333      0.1561
    125  C         32.6230   47.6440   84.3870 C.2   333  ILE333      0.2260
    126  O         33.6460   47.1050   84.8360 O.2   333  ILE333     -0.2867
    127  CB        32.4190   46.8610   82.0220 C.3   333  ILE333      0.0252
    128  CG1       32.9650   48.2240   81.6320 C.3   333  ILE333      0.0019
    129  CG2       31.4450   46.4030   80.9460 C.3   333  ILE333      0.0019
    130  CD1       33.8750   48.1400   80.4290 C.3   333  ILE333      0.0001
    131  N         34.4110   50.7400   84.0750 N.3   335  ILE335     -0.1245
    132  CA        35.6840   51.0790   83.4760 C.3   335  ILE335      0.1561
    133  C         36.5970   51.8230   84.4100 C.2   335  ILE335      0.2260
    134  O         37.8170   51.6930   84.2900 O.2   335  ILE335     -0.2867
    135  CB        35.5470   51.9450   82.2140 C.3   335  ILE335      0.0252
    136  CG1       34.2150   52.6790   82.2340 C.3   335  ILE335      0.0019
    137  CG2       35.7500   51.0970   80.9800 C.3   335  ILE335      0.0019
    138  CD1       34.1170   53.7250   83.3230 C.3   335  ILE335      0.0001
    139  N         44.7690   49.9480   79.6420 N.3   345  ILE345     -0.1245
    140  CA        43.4970   50.0210   78.9430 C.3   345  ILE345      0.1561
    141  C         43.4550   51.3470   78.1970 C.2   345  ILE345      0.2260
    142  O         42.7770   51.4750   77.1800 O.2   345  ILE345     -0.2867
    143  CB        42.3160   49.9600   79.9360 C.3   345  ILE345      0.0252
    144  CG1       42.0230   48.5160   80.3040 C.3   345  ILE345      0.0019
    145  CG2       41.0810   50.5730   79.3330 C.3   345  ILE345      0.0019
    146  CD1       40.7680   48.3450   81.1150 C.3   345  ILE345      0.0001
    147  N         37.4670   58.9800   80.6890 N.3   381  TYR381     -0.1241
    148  CA        37.5520   57.8570   79.7610 C.3   381  TYR381      0.1605
    149  C         36.7160   58.1300   78.5150 C.2   381  TYR381      0.2264
    150  O         37.1790   57.9100   77.3960 O.2   381  TYR381     -0.2867
    151  CB        37.0870   56.5480   80.4080 C.3   381  TYR381      0.0534
    152  CG        37.2830   55.3400   79.4980 C.ar  381  TYR381     -0.0201
    153  CD1       38.5670   54.9470   79.0930 C.ar  381  TYR381     -0.0009
    154  CD2       36.1870   54.6550   78.9560 C.ar  381  TYR381     -0.0009
    155  CE1       38.7560   53.9210   78.1700 C.ar  381  TYR381      0.0417
    156  CE2       36.3660   53.6240   78.0260 C.ar  381  TYR381      0.0417
    157  CZ        37.6510   53.2700   77.6350 C.ar  381  TYR381      0.1957
    158  OH        37.8320   52.3000   76.6820 O.3   381  TYR381     -0.2866
    159  N         38.1110   57.4510   74.8310 N.3   385  CYS385     -0.1235
    160  CA        37.4330   56.5820   73.8740 C.3   385  CYS385      0.1677
    161  C         37.0010   57.3330   72.6070 C.2   385  CYS385      0.2270
    162  O         37.2910   56.8860   71.4940 O.2   385  CYS385     -0.2867
    163  CB        36.2290   55.9340   74.5730 C.3   385  CYS385      0.0956
    164  SG        34.9510   55.0560   73.5930 S.3   385  CYS385     -0.0801
    165  N         39.2570   56.2230   69.7540 N.3   389  TYR389     -0.1227
    166  CA        38.5940   55.1820   68.9960 C.3   389  TYR389      0.1736
    167  C         37.8890   55.6730   67.7620 C.2   389  TYR389      0.2595
    168  O         37.6710   54.8910   66.8300 O.2   389  TYR389     -0.2718
    169  CB        37.5840   54.4350   69.8860 C.3   389  TYR389      0.0548
    170  CG        38.1880   53.7870   71.1110 C.ar  389  TYR389     -0.0200
    171  CD1       37.4010   53.0470   71.9900 C.ar  389  TYR389     -0.0009
    172  CD2       39.5510   53.9240   71.3910 C.ar  389  TYR389     -0.0009
    173  CE1       37.9590   52.4550   73.1220 C.ar  389  TYR389      0.0417
    174  CE2       40.1180   53.3500   72.5110 C.ar  389  TYR389      0.0417
    175  CZ        39.3280   52.6090   73.3830 C.ar  389  TYR389      0.1957
    176  OH        39.9270   52.0280   74.4980 O.3   389  TYR389     -0.2866
    177  N         37.5480   56.9570   67.7250 N.am  390  PHE390     -0.1976
    178  CA        36.8110   57.4280   66.5850 C.3   390  PHE390      0.1639
    179  C         37.2370   58.6810   65.9020 C.2   390  PHE390      0.2290
    180  O         37.5180   58.6630   64.7060 O.2   390  PHE390     -0.2864
    181  CB        35.3480   57.5400   66.9600 C.3   390  PHE390      0.0560
    182  CG        34.7640   56.2550   67.3960 C.ar  390  PHE390     -0.0200
    183  CD1       34.6160   55.9680   68.7400 C.ar  390  PHE390     -0.0042
    184  CD2       34.4530   55.2780   66.4670 C.ar  390  PHE390     -0.0042
    185  CE1       34.1710   54.7150   69.1550 C.ar  390  PHE390     -0.0003
    186  CE2       34.0130   54.0310   66.8740 C.ar  390  PHE390     -0.0003
    187  CZ        33.8730   53.7480   68.2190 C.ar  390  PHE390     -0.0000
    188  N         28.0000   58.1400   69.2190 N.3   436  HIS436     -0.1226
    189  CA        28.2210   57.0440   68.2880 C.3   436  HIS436      0.1752
    190  C         26.9180   56.3570   67.8620 C.2   436  HIS436      0.2595
    191  O         26.0620   56.0840   68.6920 O.2   436  HIS436     -0.2718
    192  CB        29.1070   56.0490   69.0050 C.3   436  HIS436      0.0759
    193  CG        29.7420   55.0440   68.1120 C.ar  436  HIS436      0.0818
    194  ND1       30.5860   55.3990   67.0840 N.ar  436  HIS436     -0.2268
    195  CD2       29.6890   53.6930   68.1130 C.ar  436  HIS436      0.1154
    196  CE1       31.0260   54.3070   66.4900 C.ar  436  HIS436      0.1986
    197  NE2       30.4990   53.2600   67.0920 N.ar  436  HIS436     -0.2212
    198  N         26.7900   56.0770   66.5650 N.am  437  ILE437     -0.1980
    199  CA        25.6220   55.3960   65.9580 C.3   437  ILE437      0.1595
    200  C         24.4260   56.2900   65.6350 C.2   437  ILE437      0.2287
    201  O         23.5400   55.8820   64.8790 O.2   437  ILE437     -0.2864
    202  CB        25.0030   54.2900   66.8470 C.3   437  ILE437      0.0276
    203  CG1       26.0520   53.3540   67.4140 C.3   437  ILE437      0.0022
    204  CG2       24.0450   53.4790   66.0410 C.3   437  ILE437      0.0022
    205  CD1       25.4300   52.3350   68.3580 C.3   437  ILE437      0.0001
@<TRIPOS>BOND
     1    40    41    1
     2    41    44    1
     3    41    42    1
     4    58    57    2
     5    44    45    1
     6    57    56    1
     7    42    43    2
     8    42    49   am
     9    52    51    2
    10    45    46    1
    11    49    50    1
    12    51    50    1
    13    51    55   am
    14    56    55    1
    15    56    59    1
    16    46    47    2
    17    46    48   am
    18    50    53    1
    19    53    54    1
    20   180   179    2
    21   201   200    2
    22    70    69   ar
    23    70    68   ar
    24   200   199    1
    25    69    67   ar
    26    21    22    1
    27   179   178    1
    28   199   198    1
    29   199   202    1
    30   204   202    1
    31    32    31    2
    32    68    66   ar
    33   184   186   ar
    34   184   182   ar
    35   196   194   ar
    36   196   197   ar
    37    20    19    1
    38   198   190   am
    39   178   181    1
    40   178   177    1
    41   168   167    2
    42   202   203    1
    43   186   187   ar
    44    67    65   ar
    45    22    23    1
    46   181   182    1
    47    31    30    1
    48   194   193   ar
    49   197   195   ar
    50    27    26    1
    51    27    28    2
    52    25    23   am
    53    25    26    1
    54   182   183   ar
    55   203   205    1
    56    23    24    2
    57    19    18   ar
    58    19    17   ar
    59    66    65   ar
    60   177   167   am
    61    18    16   ar
    62   167   166    1
    63   190   189    1
    64   190   191    2
    65    65    64    1
    66    29    30    1
    67    30    33    1
    68    17    15   ar
    69   193   195   ar
    70   193   192    1
    71   187   185   ar
    72   189   192    1
    73   189   188    1
    74    16    14   ar
    75    60    61    1
    76   183   185   ar
    77    15    14   ar
    78   166   165    1
    79   166   169    1
    80    14    13    1
    81    64    61    1
    82    62    61    1
    83    62    63    2
    84    33    34    1
    85    35    34   ar
    86    35    37   ar
    87   169   170    1
    88    34    36   ar
    89    13    10    1
    90    37    39   ar
    91   100    98    1
    92     8     6    1
    93    36    38   ar
    94    39    38   ar
    95   170   172   ar
    96   170   171   ar
    97    98    95    1
    98    98    99    1
    99   111   109   ar
   100   111   110   ar
   101   172   174   ar
   102   162   161    2
   103    10     9    1
   104    10    11    1
   105    89    88    2
   106   109   107   ar
   107     6     5    1
   108     6     7    1
   109   171   173   ar
   110    95    96    1
   111    95    94    1
   112   110   108   ar
   113     9     3   am
   114    12    11    2
   115    96    97    2
   116   174   175   ar
   117     5     2    1
   118   161   160    1
   119    88    94   am
   120    88    87    1
   121   173   175   ar
   122     3     2    1
   123     3     4    2
   124   107   106   ar
   125   108   106   ar
   126   175   176    1
   127   164   163    1
   128     2     1    1
   129    90    87    1
   130    90    91    1
   131   160   163    1
   132   160   159    1
   133   106   105    1
   134    87    86    1
   135    92    91    1
   136    93    91    1
   137   101   102    1
   138    86    84   am
   139   105   102    1
   140    79    77   ar
   141    79    81   ar
   142    77    76   ar
   143   102   103    1
   144    81    80   ar
   145    76    75    1
   146    76    78   ar
   147    75    72    1
   148    80    78   ar
   149   122   121   ar
   150   122   120   ar
   151    84    85    2
   152    84    83    1
   153    74    73    2
   154   158   157    1
   155   121   119   ar
   156   142   141    2
   157   120   118   ar
   158    73    72    1
   159    73    82   am
   160   103   104    2
   161   150   149    2
   162    72    71    1
   163   157   156   ar
   164   157   155   ar
   165    83    82    1
   166   156   154   ar
   167   155   153   ar
   168   141   140    1
   169   119   117   ar
   170   118   117   ar
   171   149   148    1
   172   140   139    1
   173   140   143    1
   174   154   152   ar
   175   117   116    1
   176   153   152   ar
   177   145   143    1
   178   152   151    1
   179   148   151    1
   180   148   147    1
   181   143   144    1
   182   112   113    1
   183   144   146    1
   184   130   128    1
   185   116   113    1
   186   113   114    1
   187   129   127    1
   188   137   135    1
   189   128   127    1
   190   127   124    1
   191   135   136    1
   192   135   132    1
   193   136   138    1
   194   114   115    2
   195   123   124    1
   196   124   125    1
   197   132   131    1
   198   132   133    1
   199   134   133    2
   200   125   126    2
