@<TRIPOS>MOLECULE
tmp/2fjaA01.pdb
 183 177 0 0 0
SMALL
GASTEIGER

@<TRIPOS>ATOM
      1  N         21.0840   -8.1220  135.2260 N.3    73  ASN73      -0.1240
      2  CA        21.5530   -9.4760  134.9620 C.3    73  ASN73       0.1653
      3  C         22.0260  -10.3060  136.1420 C.2    73  ASN73       0.2266
      4  O         22.2500  -11.5120  136.0020 O.2    73  ASN73      -0.2867
      5  CB        22.6310   -9.4480  133.8760 C.3    73  ASN73       0.1155
      6  CG        22.0610   -9.1180  132.5110 C.2    73  ASN73       0.2627
      7  OD1       20.8420   -9.0560  132.3330 O.2    73  ASN73      -0.2716
      8  ND2       22.9380   -8.9090  131.5370 N.am   73  ASN73      -0.0877
      9  N         27.7220  -21.7350  138.5270 N.3    94  TYR94      -0.1241
     10  CA        27.2930  -21.2210  137.2370 C.3    94  TYR94       0.1605
     11  C         28.3610  -20.3670  136.5740 C.2    94  TYR94       0.2264
     12  O         28.6190  -20.5050  135.3790 O.2    94  TYR94      -0.2867
     13  CB        26.0130  -20.4020  137.4230 C.3    94  TYR94       0.0534
     14  CG        25.6780  -19.4710  136.2800 C.ar   94  TYR94      -0.0201
     15  CD1       25.3080  -19.9670  135.0310 C.ar   94  TYR94      -0.0009
     16  CD2       25.6990  -18.0900  136.4640 C.ar   94  TYR94      -0.0009
     17  CE1       24.9610  -19.1050  133.9940 C.ar   94  TYR94       0.0417
     18  CE2       25.3540  -17.2240  135.4410 C.ar   94  TYR94       0.0417
     19  CZ        24.9850  -17.7360  134.2160 C.ar   94  TYR94       0.1957
     20  OH        24.6180  -16.8760  133.2200 O.3    94  TYR94      -0.2866
     21  N         13.9250  -13.0190  134.0160 N.3   140  GLU140     -0.1245
     22  CA        14.1650  -13.1040  132.5770 C.3   140  GLU140      0.1567
     23  C         14.5960  -14.5540  132.4330 C.2   140  GLU140      0.2260
     24  O         13.8780  -15.3860  131.8800 O.2   140  GLU140     -0.2867
     25  CB        15.3050  -12.1660  132.1640 C.3   140  GLU140      0.0388
     26  CG        15.5520  -12.0800  130.6630 C.3   140  GLU140      0.1160
     27  CD        16.6950  -11.1410  130.3250 C.2   140  GLU140      0.3649
     28  OE1       17.8330  -11.4170  130.7540 O.co2 140  GLU140     -0.2457
     29  OE2       16.4580  -10.1260  129.6350 O.co2 140  GLU140     -0.2457
     30  N         18.5800  -13.2180  136.1200 N.3   144  GLN144     -0.1245
     31  CA        18.2280  -11.8500  135.7670 C.3   144  GLN144      0.1566
     32  C         16.7730  -11.5090  136.0690 C.2   144  GLN144      0.2260
     33  O         15.9270  -12.3980  136.1770 O.2   144  GLN144     -0.2867
     34  CB        18.4790  -11.6310  134.2700 C.3   144  GLN144      0.0367
     35  CG        19.7610  -12.2690  133.7300 C.3   144  GLN144      0.0905
     36  CD        19.6370  -13.7680  133.4880 C.2   144  GLN144      0.2608
     37  OE1       18.6050  -14.3790  133.7780 O.2   144  GLN144     -0.2717
     38  NE2       20.6960  -14.3660  132.9490 N.am  144  GLN144     -0.0878
     39  N         29.0110   -3.0760  120.2130 N.3   233  TRP233     -0.1241
     40  CA        28.0260   -3.6170  121.1320 C.3   233  TRP233      0.1605
     41  C         28.2880   -3.0590  122.5280 C.2   233  TRP233      0.2264
     42  O         27.4000   -2.4730  123.1450 O.2   233  TRP233     -0.2867
     43  CB        28.0750   -5.1390  121.1940 C.3   233  TRP233      0.0550
     44  CG        27.3330   -5.6270  122.3910 C.ar  233  TRP233      0.0003
     45  CD1       25.9860   -5.5750  122.5950 C.ar  233  TRP233      0.0946
     46  CD2       27.9050   -6.1190  123.6070 C.ar  233  TRP233      0.0152
     47  NE1       25.6820   -5.9970  123.8670 N.ar  233  TRP233     -0.2442
     48  CE2       26.8420   -6.3380  124.5100 C.ar  233  TRP233      0.0810
     49  CE3       29.2160   -6.3940  124.0230 C.ar  233  TRP233      0.0012
     50  CZ2       27.0470   -6.8160  125.8090 C.ar  233  TRP233      0.0191
     51  CZ3       29.4200   -6.8690  125.3130 C.ar  233  TRP233      0.0001
     52  CH2       28.3400   -7.0760  126.1900 C.ar  233  TRP233      0.0015
     53  N         24.6800  -11.2030  119.0420 N.3   264  ARG264     -0.1245
     54  CA        23.5480  -10.2930  119.1690 C.3   264  ARG264      0.1563
     55  C         22.8420  -10.0690  117.8430 C.2   264  ARG264      0.2260
     56  O         23.2830  -10.5680  116.8110 O.2   264  ARG264     -0.2867
     57  CB        24.0520   -8.9490  119.6990 C.3   264  ARG264      0.0307
     58  CG        24.7790   -9.0360  121.0310 C.3   264  ARG264      0.0489
     59  CD        23.7890   -9.2180  122.1680 C.3   264  ARG264      0.2205
     60  NE        24.4320   -9.1390  123.4780 N.pl3 264  ARG264     -0.0865
     61  CZ        24.9900  -10.1690  124.1020 C.cat 264  ARG264      0.5346
     62  NH1       24.9870  -11.3720  123.5450 N.pl3 264  ARG264      0.1354
     63  NH2       25.5610   -9.9900  125.2860 N.pl3 264  ARG264      0.1354
     64  N         19.9380   -6.5820  122.1820 N.3   271  PRO271     -0.2102
     65  CA        19.9940   -7.7000  123.1310 C.3   271  PRO271      0.1504
     66  C         19.2240   -8.9540  122.7100 C.2   271  PRO271      0.2576
     67  O         18.1840   -8.8680  122.0540 O.2   271  PRO271     -0.2718
     68  CB        19.4370   -7.0840  124.4160 C.3   271  PRO271      0.0282
     69  CG        18.4580   -6.0620  123.9010 C.3   271  PRO271      0.0208
     70  CD        19.2420   -5.4240  122.7760 C.3   271  PRO271      0.0893
     71  N         19.7450  -10.1170  123.0970 N.am  272  VAL272     -0.1966
     72  CA        19.0980  -11.3900  122.7850 C.3   272  VAL272      0.1727
     73  C         18.7250  -12.1450  124.0640 C.2   272  VAL272      0.2617
     74  O         18.0160  -13.1500  124.0180 O.2   272  VAL272     -0.2715
     75  CB        20.0130  -12.3040  121.9320 C.3   272  VAL272      0.0290
     76  CG1       20.3890  -11.6070  120.6450 C.3   272  VAL272      0.0023
     77  CG2       21.2530  -12.6880  122.7230 C.3   272  VAL272      0.0023
     78  N         19.2080  -11.6470  125.2000 N.am  273  GLY273     -0.1940
     79  CA        18.9380  -12.2730  126.4830 C.3   273  GLY273      0.2014
     80  C         17.4600  -12.4090  126.7890 C.2   273  GLY273      0.2638
     81  O         16.9910  -13.4850  127.1650 O.2   273  GLY273     -0.2714
     82  N         16.7210  -11.3150  126.6410 N.am  274  ALA274     -0.1977
     83  CA        15.2860  -11.3450  126.8890 C.3   274  ALA274      0.1597
     84  C         14.6220  -12.2560  125.8590 C.2   274  ALA274      0.2287
     85  O         13.7680  -13.0760  126.1990 O.2   274  ALA274     -0.2864
     86  CB        14.7010   -9.9360  126.8000 C.3   274  ALA274      0.0319
     87  N         15.8770  -14.8060  124.1740 N.3   276  PHE276     -0.1227
     88  CA        16.2090  -16.2000  124.4520 C.3   276  PHE276      0.1736
     89  C         15.5720  -16.7400  125.7360 C.2   276  PHE276      0.2595
     90  O         14.9110  -17.7750  125.7220 O.2   276  PHE276     -0.2718
     91  CB        17.7290  -16.3700  124.5650 C.3   276  PHE276      0.0547
     92  CG        18.4390  -16.5260  123.2440 C.ar  276  PHE276     -0.0202
     93  CD1       19.6920  -15.9510  123.0490 C.ar  276  PHE276     -0.0042
     94  CD2       17.8780  -17.2750  122.2130 C.ar  276  PHE276     -0.0042
     95  CE1       20.3780  -16.1190  121.8470 C.ar  276  PHE276     -0.0003
     96  CE2       18.5550  -17.4510  121.0100 C.ar  276  PHE276     -0.0003
     97  CZ        19.8100  -16.8690  120.8290 C.ar  276  PHE276     -0.0000
     98  N         15.7780  -16.0300  126.8420 N.am  277  LEU277     -0.1980
     99  CA        15.2860  -16.4600  128.1470 C.3   277  LEU277      0.1596
    100  C         13.8290  -16.1480  128.4930 C.2   277  LEU277      0.2287
    101  O         13.1300  -16.9930  129.0520 O.2   277  LEU277     -0.2864
    102  CB        16.1970  -15.8840  129.2380 C.3   277  LEU277      0.0297
    103  CG        17.6870  -16.2210  129.0940 C.3   277  LEU277      0.0022
    104  CD1       18.5170  -15.4020  130.0690 C.3   277  LEU277      0.0001
    105  CD2       17.8940  -17.7130  129.3270 C.3   277  LEU277      0.0001
    106  N         23.0900  -23.2900  132.5220 N.3   310  PRO310     -0.2102
    107  CA        23.1210  -23.2700  131.0550 C.3   310  PRO310      0.1504
    108  C         24.4700  -23.7060  130.4810 C.2   310  PRO310      0.2575
    109  O         25.4620  -23.8030  131.1980 O.2   310  PRO310     -0.2718
    110  CB        22.8250  -21.8110  130.7270 C.3   310  PRO310      0.0282
    111  CG        22.0440  -21.3350  131.9200 C.3   310  PRO310      0.0208
    112  CD        22.8080  -21.9470  133.0500 C.3   310  PRO310      0.0893
    113  N         24.4940  -23.9750  129.1820 N.am  311  ILE311     -0.1980
    114  CA        25.7290  -24.3640  128.5170 C.3   311  ILE311      0.1595
    115  C         26.6260  -23.1310  128.5320 C.2   311  ILE311      0.2287
    116  O         26.1500  -22.0160  128.3390 O.2   311  ILE311     -0.2864
    117  CB        25.4590  -24.7890  127.0570 C.3   311  ILE311      0.0276
    118  CG1       24.8170  -26.1790  127.0300 C.3   311  ILE311      0.0022
    119  CG2       26.7480  -24.7840  126.2590 C.3   311  ILE311      0.0022
    120  CD1       23.4670  -26.2480  127.6910 C.3   311  ILE311      0.0001
    121  N         28.6220  -19.9640  127.7610 N.3   313  THR313     -0.1218
    122  CA        28.4520  -19.0240  126.6610 C.3   313  THR313      0.1862
    123  C         29.4640  -19.2210  125.5270 C.2   313  THR313      0.2287
    124  O         29.0920  -19.2230  124.3540 O.2   313  THR313     -0.2866
    125  CB        28.5220  -17.5760  127.1750 C.3   313  THR313      0.1770
    126  OG1       27.5980  -17.4200  128.2620 O.3   313  THR313     -0.2211
    127  CG2       28.1550  -16.5930  126.0670 C.3   313  THR313      0.0375
    128  N         28.3230  -21.9460  123.3580 N.3   316  ARG316     -0.1245
    129  CA        27.1550  -21.6240  122.5390 C.3   316  ARG316      0.1563
    130  C         27.6450  -20.8290  121.3330 C.2   316  ARG316      0.2260
    131  O         27.1300  -20.9830  120.2280 O.2   316  ARG316     -0.2867
    132  CB        26.1490  -20.7970  123.3410 C.3   316  ARG316      0.0307
    133  CG        25.2020  -21.6360  124.1900 C.3   316  ARG316      0.0489
    134  CD        23.9640  -22.0260  123.4020 C.3   316  ARG316      0.2205
    135  NE        23.0220  -22.7880  124.2160 N.pl3 316  ARG316     -0.0865
    136  CZ        23.0290  -24.1110  124.3310 C.cat 316  ARG316      0.5346
    137  NH1       23.9260  -24.8350  123.6770 N.pl3 316  ARG316      0.1354
    138  NH2       22.1420  -24.7110  125.1130 N.pl3 316  ARG316      0.1354
    139  N         17.5800    0.0640  126.1470 N.3   364  MET364     -0.1245
    140  CA        19.0380   -0.0570  126.2240 C.3   364  MET364      0.1570
    141  C         19.8480   -0.0780  124.9240 C.2   364  MET364      0.2261
    142  O         21.0520    0.1630  124.9470 O.2   364  MET364     -0.2867
    143  CB        19.4170   -1.2460  127.1230 C.3   364  MET364      0.0387
    144  CG        19.8020   -2.5410  126.4420 C.3   364  MET364      0.0595
    145  SD        20.4130   -3.7170  127.6910 S.3   364  MET364     -0.1393
    146  CE        19.0600   -4.8530  127.7800 C.3   364  MET364      0.0692
    147  N         31.1710   -8.2010  132.4710 N.3   397  HIS397     -0.1226
    148  CA        30.1710   -8.9390  131.7190 C.3   397  HIS397      0.1752
    149  C         30.5250  -10.4190  131.6000 C.2   397  HIS397      0.2596
    150  O         30.8230  -11.0710  132.6000 O.2   397  HIS397     -0.2718
    151  CB        30.0370   -8.2880  130.3430 C.3   397  HIS397      0.0759
    152  CG        28.7170   -8.5200  129.6830 C.ar  397  HIS397      0.0818
    153  ND1       28.3870   -9.7110  129.0740 N.ar  397  HIS397     -0.2268
    154  CD2       27.6500   -7.7020  129.5190 C.ar  397  HIS397      0.1154
    155  CE1       27.1740   -9.6170  128.5590 C.ar  397  HIS397      0.1986
    156  NE2       26.7050   -8.4080  128.8160 N.ar  397  HIS397     -0.2212
    157  N         30.4920  -10.9500  130.3840 N.am  398  SER398     -0.1952
    158  CA        30.8140  -12.3570  130.1790 C.3   398  SER398      0.1924
    159  C         32.3090  -12.5860  129.9830 C.2   398  SER398      0.2314
    160  O         32.7630  -13.7250  129.8450 O.2   398  SER398     -0.2863
    161  CB        30.0190  -12.9040  128.9990 C.3   398  SER398      0.2116
    162  OG        28.6360  -12.8640  129.2990 O.3   398  SER398     -0.2180
    163  N         30.4070  -11.6730  135.2300 N.3   445  HIS445     -0.1241
    164  CA        28.9810  -11.8260  135.4720 C.3   445  HIS445      0.1621
    165  C         28.4980  -10.9070  136.5850 C.2   445  HIS445      0.2264
    166  O         27.5570  -11.2190  137.3070 O.2   445  HIS445     -0.2867
    167  CB        28.6550  -13.2870  135.7800 C.3   445  HIS445      0.0745
    168  CG        28.6340  -14.1540  134.5600 C.ar  445  HIS445      0.0817
    169  ND1       27.5180  -14.2830  133.7610 N.ar  445  HIS445     -0.2268
    170  CD2       29.6140  -14.8650  133.9560 C.ar  445  HIS445      0.1154
    171  CE1       27.8120  -15.0350  132.7160 C.ar  445  HIS445      0.1986
    172  NE2       29.0780  -15.4000  132.8080 N.ar  445  HIS445     -0.2212
    173  N         27.8870   -7.4780  135.8670 N.3   447  PHE447     -0.1241
    174  CA        26.9590   -6.6260  135.1420 C.3   447  PHE447      0.1605
    175  C         26.6750   -5.3310  135.9100 C.2   447  PHE447      0.2264
    176  O         27.5220   -4.8630  136.6670 O.2   447  PHE447     -0.2867
    177  CB        25.6660   -7.3920  134.8370 C.3   447  PHE447      0.0534
    178  CG        25.8920   -8.6780  134.0710 C.ar  447  PHE447     -0.0203
    179  CD1       25.8270   -9.9110  134.7170 C.ar  447  PHE447     -0.0042
    180  CD2       26.1860   -8.6510  132.7080 C.ar  447  PHE447     -0.0042
    181  CE1       26.0530  -11.1050  134.0160 C.ar  447  PHE447     -0.0003
    182  CE2       26.4160   -9.8400  131.9950 C.ar  447  PHE447     -0.0003
    183  CZ        26.3480  -11.0680  132.6520 C.ar  447  PHE447     -0.0000
@<TRIPOS>BOND
     1    56    55    2
     2    55    54    1
     3    53    54    1
     4    54    57    1
     5    57    58    1
     6    39    40    1
     7   131   130    2
     8    76    75    1
     9    97    96   ar
    10    97    95   ar
    11    96    94   ar
    12    58    59    1
    13    40    43    1
    14    40    41    1
    15    43    44    1
    16   130   129    1
    17    95    93   ar
    18    75    77    1
    19    75    72    1
    20    67    66    2
    21    59    60    1
    22    64    70    1
    23    64    65    1
    24    94    92   ar
    25    44    45   ar
    26    44    46   ar
    27    41    42    2
    28   129   132    1
    29   129   128    1
    30    45    47   ar
    31    66    71   am
    32    66    65    1
    33    70    69    1
    34    72    71    1
    35    72    73    1
    36    93    92   ar
    37    65    68    1
    38    92    91    1
    39   132   133    1
    40   134   133    1
    41   134   135    1
    42    60    61    2
    43    62    61    1
    44    46    49   ar
    45    46    48   ar
    46   137   136    1
    47    47    48   ar
    48    69    68    1
    49    74    73    2
    50    49    51   ar
    51    73    78   am
    52    61    63    1
    53    87    88    1
    54   135   136    2
    55   136   138    1
    56   124   123    2
    57    88    91    1
    58    88    89    1
    59    48    50   ar
    60   141   142    2
    61   141   140    1
    62    78    79    1
    63    51    52   ar
    64   123   122    1
    65    90    89    2
    66    89    98   am
    67    50    52   ar
    68    84    85    2
    69    84    83    1
    70   127   125    1
    71   139   140    1
    72   140   143    1
    73   119   117    1
    74   144   143    1
    75   144   145    1
    76    79    80    1
    77    82    80   am
    78    82    83    1
    79   122   125    1
    80   122   121    1
    81    80    81    2
    82    86    83    1
    83    98    99    1
    84   118   117    1
    85   118   120    1
    86   117   114    1
    87   125   126    1
    88   145   146    1
    89    99   100    1
    90    99   102    1
    91   116   115    2
    92   100   101    2
    93   114   115    1
    94   114   113    1
    95   155   156   ar
    96   155   153   ar
    97   156   154   ar
    98   161   162    1
    99   161   158    1
   100   153   152   ar
   101   103   102    1
   102   103   105    1
   103   103   104    1
   104   113   108   am
   105   154   152   ar
   106    29    27   ar
   107   152   151    1
   108   160   159    2
   109   159   158    1
   110   158   157    1
   111    27    26    1
   112    27    28   ar
   113   151   148    1
   114   157   149   am
   115   108   107    1
   116   108   109    2
   117    26    25    1
   118   110   107    1
   119   110   111    1
   120   107   106    1
   121     8     6   am
   122   149   148    1
   123   149   150    2
   124   148   147    1
   125    24    23    2
   126   111   112    1
   127   182   183   ar
   128   182   180   ar
   129    25    22    1
   130     7     6    2
   131    23    22    1
   132     6     5    1
   133   106   112    1
   134    22    21    1
   135   183   181   ar
   136   180   178   ar
   137   171   172   ar
   138   171   169   ar
   139   172   170   ar
   140    38    36   am
   141    20    19    1
   142    36    35    1
   143    36    37    2
   144    35    34    1
   145   169   168   ar
   146     5     2    1
   147   170   168   ar
   148    17    19   ar
   149    17    15   ar
   150   181   179   ar
   151   178   179   ar
   152   178   177    1
   153    19    18   ar
   154    34    31    1
   155   168   167    1
   156   177   174    1
   157     2     1    1
   158     2     3    1
   159    15    14   ar
   160   174   173    1
   161   174   175    1
   162   163   164    1
   163    12    11    2
   164    18    16   ar
   165   164   167    1
   166   164   165    1
   167    31    32    1
   168    31    30    1
   169   175   176    2
   170     4     3    2
   171    32    33    2
   172    14    16   ar
   173    14    13    1
   174    11    10    1
   175   165   166    2
   176    10    13    1
   177    10     9    1
