@<TRIPOS>MOLECULE
tmp/2fjbB01.pdb
 159 153 0 0 0
SMALL
GASTEIGER

@<TRIPOS>ATOM
      1  N         51.6950   -9.1910   79.7570 N.3    73  ASN73      -0.1240
      2  CA        51.2570  -10.5460   80.0730 C.3    73  ASN73       0.1653
      3  C         50.8040  -11.4370   78.9390 C.2    73  ASN73       0.2266
      4  O         50.5930  -12.6350   79.1420 O.2    73  ASN73      -0.2867
      5  CB        50.1790  -10.5010   81.1510 C.3    73  ASN73       0.1155
      6  CG        50.7330  -10.0890   82.4970 C.2    73  ASN73       0.2627
      7  OD1       49.9870   -9.7020   83.3980 O.2    73  ASN73      -0.2716
      8  ND2       52.0520  -10.1870   82.6500 N.am   73  ASN73      -0.0877
      9  N         45.3010  -23.2650   77.0320 N.3    94  TYR94      -0.1241
     10  CA        45.7320  -22.6940   78.3010 C.3    94  TYR94       0.1605
     11  C         44.6490  -21.8150   78.9300 C.2    94  TYR94       0.2264
     12  O         44.3530  -21.9410   80.1190 O.2    94  TYR94      -0.2867
     13  CB        47.0130  -21.8850   78.0760 C.3    94  TYR94       0.0534
     14  CG        47.3340  -20.8820   79.1570 C.ar   94  TYR94      -0.0201
     15  CD1       47.7690  -21.2900   80.4200 C.ar   94  TYR94      -0.0009
     16  CD2       47.2220  -19.5150   78.9080 C.ar   94  TYR94      -0.0009
     17  CE1       48.0890  -20.3490   81.4080 C.ar   94  TYR94       0.0417
     18  CE2       47.5380  -18.5760   79.8810 C.ar   94  TYR94       0.0417
     19  CZ        47.9700  -18.9940   81.1240 C.ar   94  TYR94       0.1957
     20  OH        48.2910  -18.0530   82.0760 O.3    94  TYR94      -0.2866
     21  N         58.9070  -13.9510   81.2800 N.3   140  GLU140     -0.1245
     22  CA        58.6440  -13.9580   82.7130 C.3   140  GLU140      0.1567
     23  C         58.2340  -15.4060   82.9230 C.2   140  GLU140      0.2260
     24  O         58.9580  -16.1910   83.5350 O.2   140  GLU140     -0.2867
     25  CB        57.4930  -13.0130   83.0550 C.3   140  GLU140      0.0388
     26  CG        57.2310  -12.8680   84.5420 C.3   140  GLU140      0.1160
     27  CD        56.1000  -11.9030   84.8270 C.2   140  GLU140      0.3649
     28  OE1       54.9790  -12.1530   84.3440 O.co2 140  GLU140     -0.2457
     29  OE2       56.3340  -10.8960   85.5270 O.co2 140  GLU140     -0.2457
     30  N         54.2950  -14.2640   79.1390 N.3   144  GLN144     -0.1245
     31  CA        54.6080  -12.8730   79.4260 C.3   144  GLN144      0.1566
     32  C         56.0690  -12.5140   79.1660 C.2   144  GLN144      0.2260
     33  O         56.9430  -13.3800   79.1860 O.2   144  GLN144     -0.2867
     34  CB        54.2780  -12.5750   80.8960 C.3   144  GLN144      0.0367
     35  CG        53.0160  -13.2660   81.4280 C.3   144  GLN144      0.0905
     36  CD        53.2160  -14.7480   81.7280 C.2   144  GLN144      0.2608
     37  OE1       52.2680  -15.4530   82.1000 O.2   144  GLN144     -0.2717
     38  NE2       54.4400  -15.2240   81.5820 N.am  144  GLN144     -0.0878
     39  N         37.2340  -12.0300   89.7970 N.3   260  PHE260     -0.1241
     40  CA        38.6350  -12.4030   89.8940 C.3   260  PHE260      0.1605
     41  C         39.1380  -12.0110   91.2750 C.2   260  PHE260      0.2264
     42  O         38.9290  -10.8800   91.7250 O.2   260  PHE260     -0.2867
     43  CB        39.4930  -11.7160   88.8290 C.3   260  PHE260      0.0534
     44  CG        40.9670  -11.9610   89.0090 C.ar  260  PHE260     -0.0203
     45  CD1       41.4550  -13.2580   89.1470 C.ar  260  PHE260     -0.0042
     46  CD2       41.8620  -10.9000   89.0750 C.ar  260  PHE260     -0.0042
     47  CE1       42.8120  -13.4970   89.3500 C.ar  260  PHE260     -0.0003
     48  CE2       43.2240  -11.1270   89.2770 C.ar  260  PHE260     -0.0003
     49  CZ        43.6990  -12.4290   89.4150 C.ar  260  PHE260     -0.0000
     50  N         48.0260  -11.5100   96.0740 N.3   264  ARG264     -0.1245
     51  CA        49.1140  -10.5480   95.9420 C.3   264  ARG264      0.1563
     52  C         49.8230  -10.3190   97.2630 C.2   264  ARG264      0.2260
     53  O         49.4460  -10.8880   98.2870 O.2   264  ARG264     -0.2867
     54  CB        48.5660   -9.2050   95.4520 C.3   264  ARG264      0.0307
     55  CG        48.0450   -9.2070   94.0230 C.3   264  ARG264      0.0489
     56  CD        49.1840   -9.2820   93.0240 C.3   264  ARG264      0.2205
     57  NE        48.6760   -9.2410   91.6580 N.pl3 264  ARG264     -0.0865
     58  CZ        48.1430  -10.2810   91.0270 C.cat 264  ARG264      0.5346
     59  NH1       48.0580  -11.4570   91.6320 N.pl3 264  ARG264      0.1354
     60  NH2       47.6630  -10.1330   89.8000 N.pl3 264  ARG264      0.1354
     61  N         52.5560   -7.0310   92.7850 N.3   271  PRO271     -0.2102
     62  CA        52.4570   -8.1870   91.8890 C.3   271  PRO271      0.1504
     63  C         53.2350   -9.4080   92.3480 C.2   271  PRO271      0.2576
     64  O         54.2750   -9.2830   92.9920 O.2   271  PRO271     -0.2718
     65  CB        53.0030   -7.6410   90.5780 C.3   271  PRO271      0.0282
     66  CG        54.0930   -6.7290   91.0660 C.3   271  PRO271      0.0208
     67  CD        53.3860   -5.9770   92.1720 C.3   271  PRO271      0.0893
     68  N         52.7330  -10.5890   91.9950 N.am  272  VAL272     -0.1966
     69  CA        53.3990  -11.8410   92.3480 C.3   272  VAL272      0.1727
     70  C         53.8330  -12.5980   91.0940 C.2   272  VAL272      0.2616
     71  O         54.6520  -13.5050   91.1670 O.2   272  VAL272     -0.2715
     72  CB        52.4860  -12.7690   93.1830 C.3   272  VAL272      0.0290
     73  CG1       52.1370  -12.1050   94.5100 C.3   272  VAL272      0.0023
     74  CG2       51.2310  -13.1200   92.3960 C.3   272  VAL272      0.0023
     75  N         53.2810  -12.2160   89.9450 N.am  273  GLY273     -0.1955
     76  CA        53.6270  -12.8760   88.6970 C.3   273  GLY273      0.1869
     77  C         55.1200  -13.0320   88.4550 C.2   273  GLY273      0.2309
     78  O         55.6030  -14.1410   88.2130 O.2   273  GLY273     -0.2863
     79  N         56.8560  -15.3060   91.1570 N.3   276  PHE276     -0.1227
     80  CA        56.6050  -16.7310   90.9620 C.3   276  PHE276      0.1736
     81  C         57.2760  -17.2800   89.7060 C.2   276  PHE276      0.2595
     82  O         57.9940  -18.2780   89.7550 O.2   276  PHE276     -0.2718
     83  CB        55.1010  -17.0020   90.8450 C.3   276  PHE276      0.0547
     84  CG        54.3860  -17.1090   92.1630 C.ar  276  PHE276     -0.0202
     85  CD1       53.1520  -16.4860   92.3450 C.ar  276  PHE276     -0.0042
     86  CD2       54.9150  -17.8620   93.2040 C.ar  276  PHE276     -0.0042
     87  CE1       52.4570  -16.6140   93.5440 C.ar  276  PHE276     -0.0003
     88  CE2       54.2250  -17.9960   94.4080 C.ar  276  PHE276     -0.0003
     89  CZ        52.9940  -17.3710   94.5770 C.ar  276  PHE276     -0.0000
     90  N         57.0390  -16.6110   88.5820 N.am  277  LEU277     -0.1980
     91  CA        57.5500  -17.0570   87.2910 C.3   277  LEU277      0.1596
     92  C         58.9950  -16.7260   86.9430 C.2   277  LEU277      0.2287
     93  O         59.7030  -17.5590   86.3770 O.2   277  LEU277     -0.2864
     94  CB        56.6330  -16.5300   86.1850 C.3   277  LEU277      0.0297
     95  CG        55.1590  -16.9280   86.3150 C.3   277  LEU277      0.0022
     96  CD1       54.3300  -16.1570   85.3010 C.3   277  LEU277      0.0001
     97  CD2       55.0120  -18.4370   86.1100 C.3   277  LEU277      0.0001
     98  N         50.0810  -24.8090   83.6580 N.3   310  PRO310     -0.2116
     99  CA        50.0610  -24.6120   85.1100 C.3   310  PRO310      0.1372
    100  C         48.6830  -24.8720   85.7140 C.2   310  PRO310      0.2244
    101  O         47.6920  -24.9880   84.9970 O.2   310  PRO310     -0.2868
    102  CB        50.4910  -23.1570   85.2590 C.3   310  PRO310      0.0268
    103  CG        49.8920  -22.5190   84.0470 C.3   310  PRO310      0.0207
    104  CD        50.1890  -23.5190   82.9520 C.3   310  PRO310      0.0892
    105  N         44.3070  -20.7880   87.7220 N.3   313  THR313     -0.1218
    106  CA        44.3770  -19.7360   88.7210 C.3   313  THR313      0.1862
    107  C         43.4220  -19.9110   89.9000 C.2   313  THR313      0.2287
    108  O         43.8360  -19.8100   91.0540 O.2   313  THR313     -0.2866
    109  CB        44.1510  -18.3660   88.0730 C.3   313  THR313      0.1770
    110  OG1       45.0280  -18.2310   86.9470 O.3   313  THR313     -0.2211
    111  CG2       44.4520  -17.2520   89.0710 C.3   313  THR313      0.0375
    112  N         44.6710  -22.4680   92.2300 N.3   316  ARG316     -0.1245
    113  CA        45.8580  -22.0350   92.9620 C.3   316  ARG316      0.1563
    114  C         45.3380  -21.2740   94.1820 C.2   316  ARG316      0.2260
    115  O         45.8490  -21.4350   95.2940 O.2   316  ARG316     -0.2867
    116  CB        46.7410  -21.1130   92.1040 C.3   316  ARG316      0.0307
    117  CG        47.3680  -21.7900   90.8810 C.3   316  ARG316      0.0489
    118  CD        48.6090  -21.0420   90.3700 C.3   316  ARG316      0.2205
    119  NE        48.3260  -19.7200   89.8030 N.pl3 316  ARG316     -0.0865
    120  CZ        48.0780  -19.4840   88.5160 C.cat 316  ARG316      0.5346
    121  NH1       48.0690  -20.4760   87.6340 N.pl3 316  ARG316      0.1354
    122  NH2       47.8560  -18.2440   88.1030 N.pl3 316  ARG316      0.1354
    123  N         41.5530   -9.5600   82.6040 N.3   397  HIS397     -0.1226
    124  CA        42.5600  -10.2890   83.3650 C.3   397  HIS397      0.1752
    125  C         42.1990  -11.7640   83.5260 C.2   397  HIS397      0.2596
    126  O         41.9300  -12.4470   82.5390 O.2   397  HIS397     -0.2718
    127  CB        42.7230   -9.5960   84.7250 C.3   397  HIS397      0.0759
    128  CG        44.0350   -9.8550   85.3950 C.ar  397  HIS397      0.0818
    129  ND1       44.3490  -11.0630   85.9800 N.ar  397  HIS397     -0.2268
    130  CD2       45.1070   -9.0510   85.5970 C.ar  397  HIS397      0.1154
    131  CE1       45.5540  -10.9910   86.5170 C.ar  397  HIS397      0.1986
    132  NE2       46.0350   -9.7810   86.2990 N.ar  397  HIS397     -0.2212
    133  N         42.1900  -12.2650   84.7570 N.am  398  SER398     -0.1952
    134  CA        41.8620  -13.6680   84.9700 C.3   398  SER398      0.1924
    135  C         40.3780  -13.9130   85.2210 C.2   398  SER398      0.2314
    136  O         39.9650  -15.0300   85.5210 O.2   398  SER398     -0.2863
    137  CB        42.7090  -14.2370   86.1080 C.3   398  SER398      0.2116
    138  OG        44.0740  -14.2570   85.7300 O.3   398  SER398     -0.2180
    139  N         42.3750  -13.1210   79.9120 N.3   445  HIS445     -0.1241
    140  CA        43.8150  -13.1980   79.6970 C.3   445  HIS445      0.1621
    141  C         44.3120  -12.2870   78.5810 C.2   445  HIS445      0.2264
    142  O         45.3070  -12.5730   77.9140 O.2   445  HIS445     -0.2867
    143  CB        44.2290  -14.6550   79.4530 C.3   445  HIS445      0.0745
    144  CG        44.2360  -15.4880   80.6990 C.ar  445  HIS445      0.0817
    145  ND1       45.3420  -15.5990   81.5160 N.ar  445  HIS445     -0.2268
    146  CD2       43.2550  -16.2040   81.2980 C.ar  445  HIS445      0.1154
    147  CE1       45.0420  -16.3450   82.5650 C.ar  445  HIS445      0.1986
    148  NE2       43.7810  -16.7240   82.4580 N.ar  445  HIS445     -0.2212
    149  N         44.8470   -8.8120   79.1650 N.3   447  PHE447     -0.1241
    150  CA        45.7880   -7.9300   79.8420 C.3   447  PHE447      0.1605
    151  C         46.0520   -6.6750   79.0120 C.2   447  PHE447      0.2264
    152  O         45.2070   -6.2750   78.2230 O.2   447  PHE447     -0.2867
    153  CB        47.0940   -8.6760   80.1510 C.3   447  PHE447      0.0534
    154  CG        46.8920   -9.9440   80.9440 C.ar  447  PHE447     -0.0203
    155  CD1       46.9560  -11.1870   80.3240 C.ar  447  PHE447     -0.0042
    156  CD2       46.6210   -9.8930   82.3100 C.ar  447  PHE447     -0.0042
    157  CE1       46.7540  -12.3670   81.0500 C.ar  447  PHE447     -0.0003
    158  CE2       46.4160  -11.0640   83.0460 C.ar  447  PHE447     -0.0003
    159  CZ        46.4830  -12.3040   82.4120 C.ar  447  PHE447     -0.0000
@<TRIPOS>BOND
     1     9    10    1
     2   142   141    2
     3    13    10    1
     4    13    14    1
     5   152   151    2
     6    10    11    1
     7   141   140    1
     8    16    14   ar
     9    16    18   ar
    10    11    12    2
    11     3     4    2
    12     3     2    1
    13   151   150    1
    14    30    31    1
    15    14    15   ar
    16   149   150    1
    17    32    33    2
    18    32    31    1
    19    31    34    1
    20   143   140    1
    21   143   144    1
    22   140   139    1
    23     1     2    1
    24   150   153    1
    25    18    19   ar
    26     2     5    1
    27   153   154    1
    28   155   154   ar
    29   155   157   ar
    30    15    17   ar
    31   144   146   ar
    32   144   145   ar
    33    34    35    1
    34   154   156   ar
    35   157   159   ar
    36    19    17   ar
    37    19    20    1
    38     5     6    1
    39    21    22    1
    40   146   148   ar
    41    35    36    1
    42   145   147   ar
    43    38    36   am
    44    36    37    2
    45   156   158   ar
    46   159   158   ar
    47   148   147   ar
    48     6     8   am
    49     6     7    2
    50   126   125    2
    51   123   124    1
    52    22    23    1
    53    22    25    1
    54    23    24    2
    55   104    98    1
    56   104   103    1
    57    25    26    1
    58   124   125    1
    59   124   127    1
    60   125   133   am
    61    98    99    1
    62   103   102    1
    63    28    27   ar
    64    26    27    1
    65   127   128    1
    66   133   134    1
    67    27    29   ar
    68   134   135    1
    69   134   137    1
    70   101   100    2
    71    99   102    1
    72    99   100    1
    73   135   136    2
    74    96    95    1
    75   128   130   ar
    76   128   129   ar
    77   130   132   ar
    78   138   137    1
    79   129   131   ar
    80    97    95    1
    81    94    95    1
    82    94    91    1
    83   132   131   ar
    84    93    92    2
    85    92    91    1
    86   110   109    1
    87    91    90    1
    88   121   120    1
    89   105   106    1
    90   109   106    1
    91   109   111    1
    92   122   120    1
    93    78    77    2
    94    77    76    1
    95   120   119    2
    96    90    81   am
    97    76    75    1
    98   106   107    1
    99    43    44    1
   100    43    40    1
   101    44    46   ar
   102    44    45   ar
   103    46    48   ar
   104    45    47   ar
   105    48    49   ar
   106    47    49   ar
   107    81    82    2
   108    81    80    1
   109    39    40    1
   110    60    58    1
   111   119   118    1
   112    40    41    1
   113   107   108    2
   114    75    70   am
   115   118   117    1
   116    65    66    1
   117    65    62    1
   118    83    80    1
   119    83    84    1
   120   117   116    1
   121    80    79    1
   122    58    59    1
   123    58    57    2
   124    66    67    1
   125    70    71    2
   126    70    69    1
   127    41    42    2
   128    57    56    1
   129    62    63    1
   130    62    61    1
   131    68    63   am
   132    68    69    1
   133   116   113    1
   134    84    85   ar
   135    84    86   ar
   136    67    61    1
   137   112   113    1
   138    85    87   ar
   139    63    64    2
   140    69    72    1
   141    74    72    1
   142   113   114    1
   143    56    55    1
   144    72    73    1
   145    86    88   ar
   146    87    89   ar
   147    55    54    1
   148   114   115    2
   149    88    89   ar
   150    54    51    1
   151    51    50    1
   152    51    52    1
   153    52    53    2
