@<TRIPOS>MOLECULE
tmp/2fjbA02.pdb
 128 122 0 0 0
SMALL
GASTEIGER

@<TRIPOS>ATOM
      1  N         27.0970  -12.3350  120.7910 N.3   263  PHE263     -0.1241
      2  CA        26.2350  -12.7940  119.7090 C.3   263  PHE263      0.1605
      3  C         24.9980  -11.9210  119.8870 C.2   263  PHE263      0.2264
      4  O         24.3010  -12.0240  120.8960 O.2   263  PHE263     -0.2867
      5  CB        25.8550  -14.2620  119.8930 C.3   263  PHE263      0.0534
      6  CG        24.9000  -14.7750  118.8470 C.ar  263  PHE263     -0.0203
      7  CD1       25.3520  -15.1120  117.5770 C.ar  263  PHE263     -0.0042
      8  CD2       23.5480  -14.9160  119.1350 C.ar  263  PHE263     -0.0042
      9  CE1       24.4680  -15.5880  116.6070 C.ar  263  PHE263     -0.0003
     10  CE2       22.6560  -15.3900  118.1750 C.ar  263  PHE263     -0.0003
     11  CZ        23.1190  -15.7270  116.9080 C.ar  263  PHE263     -0.0000
     12  N         19.8540   -9.9170  122.9840 N.3   272  VAL272     -0.1245
     13  CA        19.2230  -11.2040  122.7060 C.3   272  VAL272      0.1561
     14  C         18.8010  -11.9030  123.9960 C.2   272  VAL272      0.2260
     15  O         18.0550  -12.8770  123.9600 O.2   272  VAL272     -0.2867
     16  CB        20.1670  -12.1610  121.9340 C.3   272  VAL272      0.0252
     17  CG1       20.5640  -11.5360  120.6030 C.3   272  VAL272      0.0019
     18  CG2       21.3970  -12.4830  122.7740 C.3   272  VAL272      0.0019
     19  N         15.8600  -14.6690  124.0000 N.3   276  PHE276     -0.1227
     20  CA        16.1620  -16.0720  124.2850 C.3   276  PHE276      0.1736
     21  C         15.5270  -16.5820  125.5760 C.2   276  PHE276      0.2595
     22  O         14.8310  -17.5990  125.5820 O.2   276  PHE276     -0.2718
     23  CB        17.6760  -16.2820  124.4010 C.3   276  PHE276      0.0547
     24  CG        18.3800  -16.4590  123.0860 C.ar  276  PHE276     -0.0202
     25  CD1       19.6420  -15.9100  122.8880 C.ar  276  PHE276     -0.0042
     26  CD2       17.8020  -17.1990  122.0600 C.ar  276  PHE276     -0.0042
     27  CE1       20.3220  -16.0920  121.6890 C.ar  276  PHE276     -0.0003
     28  CE2       18.4740  -17.3890  120.8530 C.ar  276  PHE276     -0.0003
     29  CZ        19.7370  -16.8340  120.6700 C.ar  276  PHE276     -0.0000
     30  N         15.7830  -15.8670  126.6660 N.am  277  LEU277     -0.1980
     31  CA        15.3100  -16.2570  127.9900 C.3   277  LEU277      0.1596
     32  C         13.8620  -15.9430  128.3500 C.2   277  LEU277      0.2287
     33  O         13.1880  -16.7620  128.9810 O.2   277  LEU277     -0.2864
     34  CB        16.2300  -15.6430  129.0480 C.3   277  LEU277      0.0297
     35  CG        17.7180  -15.9950  128.9100 C.3   277  LEU277      0.0022
     36  CD1       18.5390  -15.1910  129.9070 C.3   277  LEU277      0.0001
     37  CD2       17.9150  -17.4910  129.1320 C.3   277  LEU277      0.0001
     38  N         12.7240  -17.2880  122.3040 N.3   281  CYS281     -0.1221
     39  CA        12.9970  -17.2390  120.8730 C.3   281  CYS281      0.1808
     40  C         14.0350  -18.2910  120.4740 C.2   281  CYS281      0.2601
     41  O         14.9490  -18.6030  121.2420 O.2   281  CYS281     -0.2717
     42  CB        13.5010  -15.8390  120.5040 C.3   281  CYS281      0.0970
     43  SG        13.6840  -15.5040  118.7420 S.3   281  CYS281     -0.0800
     44  N         13.8780  -18.8590  119.2830 N.am  282  LYS282     -0.1965
     45  CA        14.8370  -19.8380  118.7950 C.3   282  LYS282      0.1728
     46  C         15.7140  -19.1720  117.7460 C.2   282  LYS282      0.2616
     47  O         15.2790  -18.2580  117.0410 O.2   282  LYS282     -0.2715
     48  CB        14.1410  -21.0390  118.1480 C.3   282  LYS282      0.0311
     49  CG        13.4180  -21.9750  119.1020 C.3   282  LYS282      0.0038
     50  CD        12.8130  -23.1320  118.3130 C.3   282  LYS282      0.0206
     51  CE        12.2390  -24.2100  119.2190 C.3   282  LYS282      0.1093
     52  NZ        11.1260  -23.6960  120.0520 N.3   282  LYS282     -0.1314
     53  N         16.9570  -19.6280  117.6660 N.am  283  ALA283     -0.1977
     54  CA        17.9040  -19.1290  116.6770 C.3   283  ALA283      0.1597
     55  C         18.0910  -20.2950  115.7140 C.2   283  ALA283      0.2287
     56  O         18.3960  -21.4060  116.1400 O.2   283  ALA283     -0.2864
     57  CB        19.2270  -18.7680  117.3380 C.3   283  ALA283      0.0319
     58  N         17.7600  -25.5560  114.1540 N.3   290  GLU290     -0.1231
     59  CA        18.0870  -24.9500  115.4380 C.3   290  GLU290      0.1699
     60  C         19.4330  -25.5760  115.7970 C.2   290  GLU290      0.2592
     61  O         19.5030  -26.6830  116.3350 O.2   290  GLU290     -0.2718
     62  CB        17.0220  -25.2830  116.4880 C.3   290  GLU290      0.0402
     63  CG        17.3230  -24.6860  117.8530 C.3   290  GLU290      0.1161
     64  CD        16.1530  -24.7720  118.8090 C.2   290  GLU290      0.3649
     65  OE1       15.3780  -25.7490  118.7230 O.co2 290  GLU290     -0.2457
     66  OE2       16.0210  -23.8660  119.6590 O.co2 290  GLU290     -0.2457
     67  N         20.5070  -24.8600  115.4850 N.am  291  TYR291     -0.1962
     68  CA        21.8450  -25.3800  115.7060 C.3   291  TYR291      0.1771
     69  C         22.2740  -25.7060  117.1310 C.2   291  TYR291      0.2619
     70  O         23.2740  -26.3960  117.3150 O.2   291  TYR291     -0.2715
     71  CB        22.8680  -24.4670  115.0280 C.3   291  TYR291      0.0574
     72  CG        22.7850  -23.0340  115.4620 C.ar  291  TYR291     -0.0198
     73  CD1       23.4810  -22.5870  116.5780 C.ar  291  TYR291     -0.0009
     74  CD2       21.9920  -22.1240  114.7620 C.ar  291  TYR291     -0.0009
     75  CE1       23.3930  -21.2740  116.9880 C.ar  291  TYR291      0.0417
     76  CE2       21.8940  -20.8080  115.1650 C.ar  291  TYR291      0.0417
     77  CZ        22.5960  -20.3880  116.2730 C.ar  291  TYR291      0.1957
     78  OH        22.5110  -19.0780  116.6590 O.3   291  TYR291     -0.2866
     79  N         21.5530  -25.2330  118.1440 N.am  292  ILE292     -0.1977
     80  CA        21.9490  -25.6020  119.5010 C.3   292  ILE292      0.1596
     81  C         21.5980  -27.0780  119.6700 C.2   292  ILE292      0.2287
     82  O         22.0520  -27.7330  120.6060 O.2   292  ILE292     -0.2864
     83  CB        21.2210  -24.7940  120.5950 C.3   292  ILE292      0.0276
     84  CG1       19.7090  -24.9500  120.4460 C.3   292  ILE292      0.0022
     85  CG2       21.6790  -23.3470  120.5460 C.3   292  ILE292      0.0022
     86  CD1       18.9320  -24.4760  121.6540 C.3   292  ILE292      0.0001
     87  N         24.7120  -26.9030  132.5800 N.3   309  GLN309     -0.1245
     88  CA        23.4800  -26.1600  132.3540 C.3   309  GLN309      0.1566
     89  C         23.4390  -24.9340  133.2620 C.2   309  GLN309      0.2260
     90  O         23.4670  -25.0600  134.4870 O.2   309  GLN309     -0.2867
     91  CB        22.2660  -27.0490  132.6350 C.3   309  GLN309      0.0367
     92  CG        22.0900  -28.1970  131.6530 C.3   309  GLN309      0.0905
     93  CD        21.6720  -27.7310  130.2690 C.2   309  GLN309      0.2608
     94  OE1       21.5490  -28.5340  129.3450 O.2   309  GLN309     -0.2717
     95  NE2       21.4440  -26.4300  130.1230 N.am  309  GLN309     -0.0878
     96  N         28.6630  -19.8460  127.7050 N.3   313  THR313     -0.1218
     97  CA        28.4900  -18.9020  126.6110 C.3   313  THR313      0.1862
     98  C         29.4900  -19.1130  125.4670 C.2   313  THR313      0.2287
     99  O         29.0980  -19.1410  124.2990 O.2   313  THR313     -0.2866
    100  CB        28.5780  -17.4550  127.1300 C.3   313  THR313      0.1770
    101  OG1       27.6200  -17.2750  128.1850 O.3   313  THR313     -0.2211
    102  CG2       28.2780  -16.4660  126.0110 C.3   313  THR313      0.0375
    103  N         28.4100  -21.7650  123.3220 N.3   316  ARG316     -0.1231
    104  CA        27.2340  -21.4010  122.5280 C.3   316  ARG316      0.1694
    105  C         27.7500  -20.6790  121.2880 C.2   316  ARG316      0.2592
    106  O         27.2520  -20.8860  120.1790 O.2   316  ARG316     -0.2718
    107  CB        26.2970  -20.4730  123.3110 C.3   316  ARG316      0.0321
    108  CG        25.4160  -21.1840  124.3230 C.3   316  ARG316      0.0489
    109  CD        24.5840  -22.2560  123.6400 C.3   316  ARG316      0.2205
    110  NE        23.5820  -22.8350  124.5300 N.pl3 316  ARG316     -0.0865
    111  CZ        23.0310  -24.0300  124.3510 C.cat 316  ARG316      0.5346
    112  NH1       23.3890  -24.7780  123.3170 N.pl3 316  ARG316      0.1354
    113  NH2       22.1220  -24.4790  125.2070 N.pl3 316  ARG316      0.1354
    114  N         28.7580  -19.8310  121.4830 N.am  317  ASN317     -0.1974
    115  CA        29.3630  -19.1010  120.3680 C.3   317  ASN317      0.1688
    116  C         30.0210  -20.0810  119.4120 C.2   317  ASN317      0.2292
    117  O         29.9630  -19.9130  118.1930 O.2   317  ASN317     -0.2864
    118  CB        30.4430  -18.1350  120.8570 C.3   317  ASN317      0.1181
    119  CG        29.9050  -16.7640  121.1970 C.2   317  ASN317      0.2629
    120  OD1       30.6480  -15.7810  121.1780 O.2   317  ASN317     -0.2716
    121  ND2       28.6230  -16.6870  121.5240 N.am  317  ASN317     -0.0877
    122  N         27.7710  -21.4570  116.9780 N.3   320  VAL320     -0.1245
    123  CA        27.4850  -20.4380  115.9710 C.3   320  VAL320      0.1561
    124  C         28.6120  -20.3820  114.9390 C.2   320  VAL320      0.2260
    125  O         28.3590  -20.3110  113.7350 O.2   320  VAL320     -0.2867
    126  CB        27.3460  -19.0370  116.6180 C.3   320  VAL320      0.0252
    127  CG1       27.3900  -17.9520  115.5510 C.3   320  VAL320      0.0019
    128  CG2       26.0470  -18.9600  117.3910 C.3   320  VAL320      0.0019
@<TRIPOS>BOND
     1   125   124    2
     2    58    59    1
     3    74    76   ar
     4    74    72   ar
     5   124   123    1
     6    71    72    1
     7    71    68    1
     8    76    77   ar
     9    59    60    1
    10    59    62    1
    11    72    73   ar
    12    67    68    1
    13    67    60   am
    14   127   126    1
    15    68    69    1
    16    55    56    2
    17    55    54    1
    18    60    61    2
    19   123   126    1
    20   123   122    1
    21    77    78    1
    22    77    75   ar
    23    62    63    1
    24    73    75   ar
    25     9    11   ar
    26     9     7   ar
    27   126   128    1
    28    54    57    1
    29    54    53    1
    30    11    10   ar
    31    47    46    2
    32    69    70    2
    33    69    79   am
    34     7     6   ar
    35    53    46   am
    36    46    45    1
    37    63    64    1
    38    79    80    1
    39    48    45    1
    40    48    49    1
    41    10     8   ar
    42   117   116    2
    43    50    49    1
    44    50    51    1
    45    65    64   ar
    46    43    42    1
    47    45    44    1
    48    64    66   ar
    49     6     8   ar
    50     6     5    1
    51    51    52    1
    52    44    40   am
    53   116   115    1
    54    80    81    1
    55    80    83    1
    56    81    82    2
    57     2     3    1
    58     2     5    1
    59     2     1    1
    60     3     4    2
    61   106   105    2
    62   115   118    1
    63   115   114    1
    64    84    83    1
    65    84    86    1
    66    40    39    1
    67    40    41    2
    68    42    39    1
    69    85    83    1
    70    17    16    1
    71    29    28   ar
    72    29    27   ar
    73    28    26   ar
    74   118   119    1
    75    39    38    1
    76   120   119    2
    77   119   121   am
    78   105   114   am
    79   105   104    1
    80    27    25   ar
    81    16    13    1
    82    16    18    1
    83    26    24   ar
    84   104   107    1
    85   104   103    1
    86    13    12    1
    87    13    14    1
    88    25    24   ar
    89    24    23    1
    90   107   108    1
    91   112   111    1
    92   109   108    1
    93   109   110    1
    94    15    14    2
    95    19    20    1
    96    20    23    1
    97    20    21    1
    98    99    98    2
    99   111   110    2
   100   111   113    1
   101    98    97    1
   102    21    22    2
   103    21    30   am
   104   102   100    1
   105    97   100    1
   106    97    96    1
   107    30    31    1
   108   100   101    1
   109    31    32    1
   110    31    34    1
   111    32    33    2
   112    35    34    1
   113    35    37    1
   114    35    36    1
   115    94    93    2
   116    95    93   am
   117    93    92    1
   118    92    91    1
   119    88    87    1
   120    88    91    1
   121    88    89    1
   122    89    90    2
