@<TRIPOS>MOLECULE
tmp/2fjkA00.pdb
 92 87 0 0 0
SMALL
GASTEIGER

@<TRIPOS>ATOM
      1  N         46.7350   60.6530   51.3990 N.3    22  ASN22      -0.1240
      2  CA        46.4810   60.9040   49.9870 C.3    22  ASN22       0.1653
      3  C         46.2180   59.6140   49.2460 C.2    22  ASN22       0.2266
      4  O         46.8600   58.6000   49.5050 O.2    22  ASN22      -0.2867
      5  CB        47.6690   61.6380   49.3610 C.3    22  ASN22       0.1155
      6  CG        47.7670   63.0530   49.8360 C.2    22  ASN22       0.2627
      7  OD1       47.1110   63.9540   49.2970 O.2    22  ASN22      -0.2716
      8  ND2       48.5660   63.2670   50.8700 N.am   22  ASN22      -0.0877
      9  N         42.5230   69.2930   49.9830 N.3    75  ASP75      -0.1225
     10  CA        43.9800   69.3890   50.1370 C.3    75  ASP75       0.1805
     11  C         44.6770   70.2960   49.0970 C.2    75  ASP75       0.2597
     12  O         44.8360   69.9410   47.9210 O.2    75  ASP75      -0.2718
     13  CB        44.5940   67.9760   50.0960 C.3    75  ASP75       0.1424
     14  CG        46.0510   67.9450   50.5260 C.2    75  ASP75       0.3668
     15  OD1       46.3680   68.5320   51.5820 O.co2  75  ASP75      -0.2456
     16  OD2       46.8740   67.3210   49.8190 O.co2  75  ASP75      -0.2456
     17  N         45.0780   71.4750   49.5550 N.am   76  HIS76      -0.1975
     18  CA        45.7760   72.4430   48.7240 C.3    76  HIS76       0.1656
     19  C         45.0530   72.7640   47.4200 C.2    76  HIS76       0.2291
     20  O         45.6250   72.6280   46.3340 O.2    76  HIS76      -0.2864
     21  CB        47.1900   71.9340   48.4290 C.3    76  HIS76       0.0771
     22  CG        48.0320   71.7590   49.6550 C.ar   76  HIS76       0.0820
     23  ND1       48.8070   70.6410   49.8750 N.ar   76  HIS76      -0.2267
     24  CD2       48.2120   72.5580   50.7330 C.ar   76  HIS76       0.1154
     25  CE1       49.4260   70.7570   51.0370 C.ar   76  HIS76       0.1986
     26  NE2       49.0820   71.9110   51.5770 N.ar   76  HIS76      -0.2212
     27  N         56.9040   69.2480   51.7930 N.3   171  HIS171     -0.1226
     28  CA        56.5990   68.0300   51.0270 C.3   171  HIS171      0.1752
     29  C         57.8200   67.3420   50.4140 C.2   171  HIS171      0.2596
     30  O         58.8950   67.9340   50.2940 O.2   171  HIS171     -0.2718
     31  CB        55.6160   68.3340   49.8840 C.3   171  HIS171      0.0759
     32  CG        54.3250   68.9490   50.3250 C.ar  171  HIS171      0.0818
     33  ND1       53.4920   68.3600   51.2520 N.ar  171  HIS171     -0.2268
     34  CD2       53.7170   70.1010   49.9520 C.ar  171  HIS171      0.1154
     35  CE1       52.4290   69.1250   51.4330 C.ar  171  HIS171      0.1986
     36  NE2       52.5410   70.1860   50.6570 N.ar  171  HIS171     -0.2212
     37  N         57.6410   66.0850   50.0200 N.am  172  GLY172     -0.1957
     38  CA        58.7270   65.3570   49.3920 C.3   172  GLY172      0.1869
     39  C         59.6030   64.5400   50.3100 C.2   172  GLY172      0.2309
     40  O         59.4430   64.5610   51.5270 O.2   172  GLY172     -0.2863
     41  N         63.2480   66.5510   53.3220 N.3   175  LYS175     -0.1245
     42  CA        62.8110   67.5670   54.2700 C.3   175  LYS175      0.1561
     43  C         63.9070   68.3260   55.0190 C.2   175  LYS175      0.2260
     44  O         63.6040   69.2180   55.8060 O.2   175  LYS175     -0.2867
     45  CB        61.8310   66.9290   55.2650 C.3   175  LYS175      0.0271
     46  CG        60.6830   66.1900   54.5730 C.3   175  LYS175      0.0035
     47  CD        59.6250   65.7050   55.5540 C.3   175  LYS175      0.0206
     48  CE        58.5580   64.8910   54.8470 C.3   175  LYS175      0.1093
     49  NZ        57.9640   65.6350   53.6940 N.3   175  LYS175     -0.1314
     50  N         51.0660   69.6000   57.3860 N.3   201  HIS201     -0.1226
     51  CA        51.3230   68.9620   56.1000 C.3   201  HIS201      0.1752
     52  C         52.7950   68.6240   55.9600 C.2   201  HIS201      0.2596
     53  O         53.5920   68.9380   56.8390 O.2   201  HIS201     -0.2718
     54  CB        50.8920   69.8620   54.9390 C.3   201  HIS201      0.0759
     55  CG        49.4100   69.9790   54.7900 C.ar  201  HIS201      0.0818
     56  ND1       48.6610   70.8980   55.4930 N.ar  201  HIS201     -0.2268
     57  CD2       48.5310   69.2630   54.0500 C.ar  201  HIS201      0.1154
     58  CE1       47.3850   70.7440   55.1880 C.ar  201  HIS201      0.1986
     59  NE2       47.2790   69.7590   54.3160 N.ar  201  HIS201     -0.2212
     60  N         53.1430   67.9810   54.8470 N.am  202  GLY202     -0.1957
     61  CA        54.5190   67.5980   54.5950 C.3   202  GLY202      0.1869
     62  C         55.0910   66.9040   55.8080 C.2   202  GLY202      0.2309
     63  O         56.2360   67.1490   56.1970 O.2   202  GLY202     -0.2863
     64  N         55.5010   63.4390   56.2530 N.3   204  SER204     -0.1217
     65  CA        55.9810   62.0680   56.0900 C.3   204  SER204      0.1889
     66  C         57.2550   61.8330   56.9150 C.2   204  SER204      0.2288
     67  O         58.0130   62.7630   57.1840 O.2   204  SER204     -0.2866
     68  CB        56.2620   61.7550   54.6180 C.3   204  SER204      0.2089
     69  OG        55.0970   61.2900   53.9560 O.3   204  SER204     -0.2183
     70  N         49.0050   65.1250   57.5820 N.3   244  ASN244     -0.1240
     71  CA        48.9880   64.6080   56.2230 C.3   244  ASN244      0.1653
     72  C         50.1950   63.7330   55.9030 C.2   244  ASN244      0.2266
     73  O         51.3310   64.0750   56.2390 O.2   244  ASN244     -0.2867
     74  CB        48.9230   65.7700   55.2390 C.3   244  ASN244      0.1155
     75  CG        47.5040   66.1160   54.8260 C.2   244  ASN244      0.2627
     76  OD1       47.0530   65.7400   53.7370 O.2   244  ASN244     -0.2716
     77  ND2       46.7910   66.8360   55.6890 N.am  244  ASN244     -0.0877
     78  N         51.7590   61.4310   52.5430 N.3   246  ASP246     -0.1225
     79  CA        51.6380   61.0940   51.1310 C.3   246  ASP246      0.1805
     80  C         52.8810   60.3550   50.6270 C.2   246  ASP246      0.2598
     81  O         52.7870   59.2140   50.1840 O.2   246  ASP246     -0.2718
     82  CB        51.4060   62.3860   50.3310 C.3   246  ASP246      0.1424
     83  CG        51.1990   62.1420   48.8540 C.2   246  ASP246      0.3668
     84  OD1       51.1150   60.9730   48.4370 O.co2 246  ASP246     -0.2456
     85  OD2       51.1150   63.1370   48.1040 O.co2 246  ASP246     -0.2456
     86  N         54.0350   61.0160   50.6920 N.am  247  THR247     -0.1953
     87  CA        55.3020   60.4280   50.2620 C.3   247  THR247      0.1897
     88  C         55.5460   59.0090   50.8160 C.2   247  THR247      0.2313
     89  O         55.9210   58.1030   50.0690 O.2   247  THR247     -0.2863
     90  CB        56.5020   61.3170   50.6920 C.3   247  THR247      0.1794
     91  OG1       56.4710   62.5550   49.9710 O.3   247  THR247     -0.2208
     92  CG2       57.8200   60.6070   50.4250 C.3   247  THR247      0.0378
@<TRIPOS>BOND
     1    20    19    2
     2    19    18    1
     3    12    11    2
     4    85    83   ar
     5    21    18    1
     6    21    22    1
     7    84    83   ar
     8    18    17    1
     9    83    82    1
    10    11    17   am
    11    11    10    1
    12     3     4    2
    13     3     2    1
    14     7     6    2
    15     5     6    1
    16     5     2    1
    17    38    37    1
    18    38    39    1
    19    22    23   ar
    20    22    24   ar
    21    16    14   ar
    22     6     8   am
    23    23    25   ar
    24    31    32    1
    25    31    28    1
    26    34    32   ar
    27    34    36   ar
    28    91    90    1
    29     9    10    1
    30     2     1    1
    31    37    29   am
    32    89    88    2
    33    13    10    1
    34    13    14    1
    35    81    80    2
    36    87    90    1
    37    87    86    1
    38    87    88    1
    39    30    29    2
    40    39    40    2
    41    32    33   ar
    42    82    79    1
    43    29    28    1
    44    92    90    1
    45    14    15   ar
    46    80    86   am
    47    80    79    1
    48    36    35   ar
    49    24    26   ar
    50    28    27    1
    51    25    26   ar
    52    79    78    1
    53    33    35   ar
    54    41    42    1
    55    49    48    1
    56    76    75    2
    57    69    68    1
    58    57    59   ar
    59    57    55   ar
    60    42    43    1
    61    42    45    1
    62    59    58   ar
    63    46    45    1
    64    46    47    1
    65    61    60    1
    66    61    62    1
    67    68    65    1
    68    55    54    1
    69    55    56   ar
    70    75    74    1
    71    75    77   am
    72    48    47    1
    73    60    52   am
    74    54    51    1
    75    43    44    2
    76    58    56   ar
    77    74    71    1
    78    62    63    2
    79    72    71    1
    80    72    73    2
    81    52    51    1
    82    52    53    2
    83    65    64    1
    84    65    66    1
    85    51    50    1
    86    71    70    1
    87    66    67    2
