@<TRIPOS>MOLECULE
tmp/2fjmA00.pdb
 138 132 0 0 0
SMALL
GASTEIGER

@<TRIPOS>ATOM
      1  N         22.9120   21.8540   15.9030 N.3    50  TYR50      -0.1227
      2  CA        22.1510   22.6890   16.8260 C.3    50  TYR50       0.1736
      3  C         20.7170   22.2300   16.9060 C.2    50  TYR50       0.2595
      4  O         20.0950   21.9060   15.8920 O.2    50  TYR50      -0.2718
      5  CB        22.1810   24.1520   16.3670 C.3    50  TYR50       0.0548
      6  CG        23.5580   24.7260   16.3300 C.ar   50  TYR50      -0.0200
      7  CD1       24.3020   24.8780   17.5050 C.ar   50  TYR50      -0.0009
      8  CD2       24.1300   25.1340   15.1280 C.ar   50  TYR50      -0.0009
      9  CE1       25.5730   25.4200   17.4780 C.ar   50  TYR50       0.0417
     10  CE2       25.4060   25.6650   15.1030 C.ar   50  TYR50       0.0417
     11  CZ        26.1130   25.8110   16.2670 C.ar   50  TYR50       0.1957
     12  OH        27.3810   26.3320   16.2270 O.3    50  TYR50      -0.2866
     13  N         20.1960   22.2260   18.1240 N.am   51  ARG51      -0.1966
     14  CA        18.8670   21.7290   18.4260 C.3    51  ARG51       0.1729
     15  C         17.7420   22.4350   17.6470 C.2    51  ARG51       0.2616
     16  O         16.7850   21.7890   17.2110 O.2    51  ARG51      -0.2715
     17  CB        18.6500   21.8420   19.9440 C.3    51  ARG51       0.0348
     18  CG        17.4580   21.1100   20.5120 C.3    51  ARG51       0.0492
     19  CD        17.1140   21.6790   21.9050 C.3    51  ARG51       0.2205
     20  NE        16.5140   23.0190   21.8120 N.pl3  51  ARG51      -0.0865
     21  CZ        16.5080   23.9300   22.7860 C.cat  51  ARG51       0.5346
     22  NH1       17.0890   23.6730   23.9580 N.pl3  51  ARG51       0.1354
     23  NH2       15.9220   25.1110   22.5790 N.pl3  51  ARG51       0.1354
     24  N         17.8410   23.7520   17.4900 N.am   52  ASP52      -0.1957
     25  CA        16.7370   24.5300   16.9080 C.3    52  ASP52       0.1840
     26  C         16.9340   24.8140   15.4180 C.2    52  ASP52       0.2621
     27  O         16.0150   25.2680   14.7560 O.2    52  ASP52      -0.2715
     28  CB        16.5740   25.8790   17.6190 C.3    52  ASP52       0.1450
     29  CG        16.0620   25.7560   19.0600 C.2    52  ASP52       0.3671
     30  OD1       15.8980   24.6400   19.5960 O.co2  52  ASP52      -0.2456
     31  OD2       15.7960   26.8190   19.6560 O.co2  52  ASP52      -0.2456
     32  N         18.1380   24.6070   14.9010 N.am   53  VAL53      -0.1977
     33  CA        18.3900   24.8720   13.4840 C.3    53  VAL53       0.1596
     34  C         18.1680   23.6070   12.6540 C.2    53  VAL53       0.2287
     35  O         18.9740   22.6670   12.7100 O.2    53  VAL53      -0.2864
     36  CB        19.8110   25.4240   13.2350 C.3    53  VAL53       0.0276
     37  CG1       20.0070   25.7120   11.7370 C.3    53  VAL53       0.0022
     38  CG2       20.0420   26.6930   14.0740 C.3    53  VAL53       0.0022
     39  N         31.0760   34.5910   14.1370 N.3   181  ASP181     -0.1225
     40  CA        29.6900   34.2090   14.3730 C.3   181  ASP181      0.1805
     41  C         28.9050   35.4030   14.9020 C.2   181  ASP181      0.2597
     42  O         29.3820   36.1220   15.7780 O.2   181  ASP181     -0.2718
     43  CB        29.6030   33.0170   15.3370 C.3   181  ASP181      0.1424
     44  CG        30.0760   33.3520   16.7330 C.2   181  ASP181      0.3668
     45  OD1       31.2830   33.6410   16.9190 O.co2 181  ASP181     -0.2456
     46  OD2       29.2430   33.3210   17.6600 O.co2 181  ASP181     -0.2456
     47  N         27.7150   35.6190   14.3490 N.am  182  PHE182     -0.1976
     48  CA        26.8910   36.7850   14.6780 C.3   182  PHE182      0.1639
     49  C         27.6030   38.1160   14.3950 C.2   182  PHE182      0.2290
     50  O         27.2230   39.1550   14.9180 O.2   182  PHE182     -0.2864
     51  CB        26.3740   36.6850   16.1300 C.3   182  PHE182      0.0560
     52  CG        25.5490   35.4490   16.3780 C.ar  182  PHE182     -0.0200
     53  CD1       24.2270   35.3950   15.9660 C.ar  182  PHE182     -0.0042
     54  CD2       26.1180   34.3150   16.9580 C.ar  182  PHE182     -0.0042
     55  CE1       23.4550   34.2380   16.1550 C.ar  182  PHE182     -0.0003
     56  CE2       25.3470   33.1490   17.1640 C.ar  182  PHE182     -0.0003
     57  CZ        24.0130   33.1210   16.7670 C.ar  182  PHE182     -0.0000
     58  N         28.2930   27.8550    7.1520 N.3   215  CYS215     -0.1221
     59  CA        29.0280   28.5100    8.2180 C.3   215  CYS215      0.1808
     60  C         29.0010   27.4940    9.3720 C.2   215  CYS215      0.2602
     61  O         29.2810   26.3200    9.1440 O.2   215  CYS215     -0.2717
     62  CB        28.4010   29.8810    8.5500 C.3   215  CYS215      0.0970
     63  SG        26.5840   29.9720    8.4280 S.3   215  CYS215     -0.0800
     64  N         28.6870   27.9030   10.5950 N.am  216  SER216     -0.1938
     65  CA        28.4900   26.9180   11.6680 C.3   216  SER216      0.2055
     66  C         27.0560   26.3330   11.6260 C.2   216  SER216      0.2642
     67  O         26.8660   25.1150   11.5150 O.2   216  SER216     -0.2714
     68  CB        28.8280   27.5380   13.0200 C.3   216  SER216      0.2130
     69  OG        28.8210   26.5650   14.0440 O.3   216  SER216     -0.2179
     70  N         26.0520   27.1970   11.6850 N.am  217  ALA217     -0.1977
     71  CA        24.6430   26.7460   11.6140 C.3   217  ALA217      0.1597
     72  C         24.0950   26.6950   10.1920 C.2   217  ALA217      0.2287
     73  O         23.0720   26.0280    9.9230 O.2   217  ALA217     -0.2864
     74  CB        23.7700   27.6350   12.4480 C.3   217  ALA217      0.0319
     75  N         22.9610   29.4690    8.6330 N.3   219  ILE219     -0.1231
     76  CA        21.8420   30.4480    8.5610 C.3   219  ILE219      0.1692
     77  C         22.2650   31.9410    8.5830 C.2   219  ILE219      0.2593
     78  O         21.7770   32.7260    7.7740 O.2   219  ILE219     -0.2718
     79  CB        20.6870   30.1420    9.5820 C.3   219  ILE219      0.0266
     80  CG1       21.1340   30.3040   11.0540 C.3   219  ILE219      0.0019
     81  CG2       20.0660   28.7380    9.2950 C.3   219  ILE219      0.0020
     82  CD1       19.9420   30.2590   12.0570 C.3   219  ILE219      0.0001
     83  N         23.1760   32.3160    9.4770 N.am  220  GLY220     -0.1942
     84  CA        23.5480   33.7290    9.6830 C.3   220  GLY220      0.2014
     85  C         24.4430   34.2640    8.5850 C.2   220  GLY220      0.2638
     86  O         24.0080   35.0440    7.7320 O.2   220  GLY220     -0.2714
     87  N         25.7040   33.8380    8.6050 N.am  221  ARG221     -0.1977
     88  CA        26.6710   34.2550    7.5970 C.3   221  ARG221      0.1597
     89  C         26.2970   33.6870    6.2280 C.2   221  ARG221      0.2287
     90  O         26.3430   34.4100    5.2330 O.2   221  ARG221     -0.2864
     91  CB        28.1010   33.8580    8.0120 C.3   221  ARG221      0.0334
     92  CG        28.5550   34.5540    9.2870 C.3   221  ARG221      0.0492
     93  CD        29.6980   33.8550    9.9710 C.3   221  ARG221      0.2205
     94  NE        29.2460   32.7110   10.7620 N.pl3 221  ARG221     -0.0865
     95  CZ        30.0430   31.9780   11.5420 C.cat 221  ARG221      0.5346
     96  NH1       31.3590   32.2550   11.6380 N.pl3 221  ARG221      0.1354
     97  NH2       29.5220   30.9730   12.2380 N.pl3 221  ARG221      0.1354
     98  N         13.9690   32.8680    2.9790 N.3   254  ARG254     -0.1245
     99  CA        13.5910   32.2470    4.2490 C.3   254  ARG254      0.1563
    100  C         12.4690   31.2010    4.1160 C.2   254  ARG254      0.2260
    101  O         12.2160   30.4460    5.0530 O.2   254  ARG254     -0.2867
    102  CB        13.2370   33.3050    5.2970 C.3   254  ARG254      0.0307
    103  CG        14.4410   33.8390    6.0350 C.3   254  ARG254      0.0489
    104  CD        14.0240   34.8380    7.1300 C.3   254  ARG254      0.2205
    105  NE        15.1600   35.2230    7.9730 N.pl3 254  ARG254     -0.0865
    106  CZ        15.1290   35.2330    9.3100 C.cat 254  ARG254      0.5346
    107  NH1       14.0230   34.8790    9.9710 N.pl3 254  ARG254      0.1354
    108  NH2       16.1930   35.6150    9.9760 N.pl3 254  ARG254      0.1354
    109  N         15.1070   28.3280    7.4680 N.3   258  MET258     -0.1230
    110  CA        14.8440   29.2450    8.5800 C.3   258  MET258      0.1702
    111  C         16.0320   30.1260    8.9740 C.2   258  MET258      0.2592
    112  O         17.1830   29.7260    8.8380 O.2   258  MET258     -0.2718
    113  CB        14.3880   28.4580    9.8210 C.3   258  MET258      0.0401
    114  CG        15.4320   27.4290   10.3250 C.3   258  MET258      0.0596
    115  SD        14.9600   26.5630   11.8330 S.3   258  MET258     -0.1393
    116  CE        13.4590   25.6940   11.3180 C.3   258  MET258      0.0692
    117  N         15.7340   31.3250    9.4670 N.am  259  GLY259     -0.1957
    118  CA        16.6960   32.1160   10.2320 C.3   259  GLY259      0.1869
    119  C         17.8160   32.7710    9.4590 C.2   259  GLY259      0.2309
    120  O         18.7670   33.2690   10.0500 O.2   259  GLY259     -0.2863
    121  N         21.1940   36.5470   10.7770 N.3   262  GLN262     -0.1245
    122  CA        20.9370   36.4080   12.2270 C.3   262  GLN262      0.1566
    123  C         21.0110   37.6750   13.0790 C.2   262  GLN262      0.2260
    124  O         20.7160   37.6290   14.2750 O.2   262  GLN262     -0.2867
    125  CB        21.8450   35.3170   12.8110 C.3   262  GLN262      0.0367
    126  CG        21.2830   33.9020   12.6020 C.3   262  GLN262      0.0905
    127  CD        20.0140   33.7070   13.3800 C.2   262  GLN262      0.2608
    128  OE1       20.0590   33.5210   14.6020 O.2   262  GLN262     -0.2717
    129  NE2       18.8630   33.7870   12.6990 N.am  262  GLN262     -0.0878
    130  N         24.0760   42.2820   10.2650 N.3   266  GLN266     -0.1245
    131  CA        24.2340   41.4850    9.0630 C.3   266  GLN266      0.1566
    132  C         23.2610   41.9330    7.9690 C.2   266  GLN266      0.2260
    133  O         23.6260   41.9750    6.7910 O.2   266  GLN266     -0.2867
    134  CB        24.0530   40.0020    9.3890 C.3   266  GLN266      0.0367
    135  CG        25.2320   39.3880   10.1200 C.3   266  GLN266      0.0905
    136  CD        24.9730   37.9400   10.4920 C.2   266  GLN266      0.2608
    137  OE1       23.8400   37.4590   10.3960 O.2   266  GLN266     -0.2717
    138  NE2       26.0290   37.2330   10.9140 N.am  266  GLN266     -0.0878
@<TRIPOS>BOND
     1    98    99    1
     2   100    99    1
     3   100   101    2
     4    99   102    1
     5    90    89    2
     6   102   103    1
     7   103   104    1
     8    89    88    1
     9   133   132    2
    10   104   105    1
    11    58    59    1
    12   109   110    1
    13    88    91    1
    14    88    87    1
    15    86    85    2
    16    78    77    2
    17   132   131    1
    18   105   106    2
    19    91    92    1
    20    59    62    1
    21    59    60    1
    22    63    62    1
    23    76    77    1
    24    76    75    1
    25    76    79    1
    26   110   111    1
    27   110   113    1
    28    77    83   am
    29    85    87   am
    30    85    84    1
    31   112   111    2
    32   111   117   am
    33   131   134    1
    34   131   130    1
    35    61    60    2
    36    92    93    1
    37    81    79    1
    38   106   107    1
    39   106   108    1
    40    60    64   am
    41   134   135    1
    42   119   120    2
    43   119   118    1
    44   117   118    1
    45    83    84    1
    46    79    80    1
    47   113   114    1
    48    73    72    2
    49    93    94    1
    50   135   136    1
    51    72    71    1
    52   114   115    1
    53   137   136    2
    54   136   138   am
    55    64    65    1
    56    94    95    2
    57   121   122    1
    58    80    82    1
    59   116   115    1
    60    67    66    2
    61    95    96    1
    62    95    97    1
    63    71    70    1
    64    71    74    1
    65    66    65    1
    66    66    70   am
    67    65    68    1
    68    37    36    1
    69   122   125    1
    70   122   123    1
    71   126   125    1
    72   126   127    1
    73    34    35    2
    74    34    33    1
    75   129   127   am
    76    68    69    1
    77   123   124    2
    78    36    33    1
    79    36    38    1
    80   127   128    2
    81    33    32    1
    82    39    40    1
    83    47    48    1
    84    47    41   am
    85    40    41    1
    86    40    43    1
    87    49    48    1
    88    49    50    2
    89    48    51    1
    90    27    26    2
    91    32    26   am
    92    41    42    2
    93    10     8   ar
    94    10    11   ar
    95     8     6   ar
    96    43    44    1
    97    26    25    1
    98     4     3    2
    99     1     2    1
   100    53    55   ar
   101    53    52   ar
   102    51    52    1
   103    55    57   ar
   104    12    11    1
   105    11     9   ar
   106     6     5    1
   107     6     7   ar
   108     5     2    1
   109    52    54   ar
   110    44    45   ar
   111    44    46   ar
   112    57    56   ar
   113     2     3    1
   114     3    13   am
   115    25    24    1
   116    25    28    1
   117    54    56   ar
   118    16    15    2
   119     9     7   ar
   120    24    15   am
   121    28    29    1
   122    15    14    1
   123    13    14    1
   124    14    17    1
   125    29    30   ar
   126    29    31   ar
   127    17    18    1
   128    18    19    1
   129    20    19    1
   130    20    21    2
   131    23    21    1
   132    21    22    1
