@<TRIPOS>MOLECULE
tmp/2fk6B00.pdb
 94 89 0 0 0
SMALL
GASTEIGER

@<TRIPOS>ATOM
      1  N        171.7360   -2.2500   54.4570 N.3    30  ARG30      -0.1231
      2  CA       171.5120   -1.0490   55.2220 C.3    30  ARG30       0.1694
      3  C        170.2920   -1.2180   56.0970 C.2    30  ARG30       0.2592
      4  O        169.7010   -0.2400   56.5510 O.2    30  ARG30      -0.2718
      5  CB       171.3930    0.1730   54.3140 C.3    30  ARG30       0.0321
      6  CG       170.3250    0.0930   53.2480 C.3    30  ARG30       0.0489
      7  CD       169.8370    1.4950   52.9490 C.3    30  ARG30       0.2205
      8  NE       170.9710    2.3750   52.6940 N.pl3  30  ARG30      -0.0865
      9  CZ       170.9390    3.6930   52.8450 C.cat  30  ARG30       0.5346
     10  NH1      169.8260    4.2940   53.2480 N.pl3  30  ARG30       0.1354
     11  NH2      172.0290    4.4040   52.6070 N.pl3  30  ARG30       0.1354
     12  N        169.9310   -2.4800   56.3260 N.am   31  ARG31      -0.1966
     13  CA       168.8210   -2.8410   57.1990 C.3    31  ARG31       0.1729
     14  C        167.4320   -2.4680   56.7220 C.2    31  ARG31       0.2616
     15  O        166.5270   -2.3050   57.5500 O.2    31  ARG31      -0.2715
     16  CB       169.0120   -2.2020   58.5730 C.3    31  ARG31       0.0348
     17  CG       169.8060   -2.9890   59.5970 C.3    31  ARG31       0.0492
     18  CD       169.2940   -2.5730   60.9800 C.3    31  ARG31       0.2205
     19  NE       169.9670   -3.2300   62.0980 N.pl3  31  ARG31      -0.0865
     20  CZ       169.5130   -3.2070   63.3500 C.cat  31  ARG31       0.5346
     21  NH1      168.3840   -2.5650   63.6400 N.pl3  31  ARG31       0.1354
     22  NH2      170.1860   -3.8200   64.3170 N.pl3  31  ARG31       0.1354
     23  N        167.2330   -2.3350   55.4140 N.am   32  SER32      -0.1950
     24  CA       165.9050   -1.9350   54.9400 C.3    32  SER32       0.1924
     25  C        165.5840   -2.2780   53.4970 C.2    32  SER32       0.2314
     26  O        166.3900   -2.8780   52.7630 O.2    32  SER32      -0.2863
     27  CB       165.7380   -0.4250   55.1070 C.3    32  SER32       0.2116
     28  OG       166.7310    0.2510   54.3490 O.3    32  SER32      -0.2180
     29  N        157.4410   -1.0150   58.1760 N.3    54  ARG54      -0.1231
     30  CA       158.4810   -0.3180   58.9400 C.3    54  ARG54       0.1694
     31  C        159.9010   -0.4910   58.4140 C.2    54  ARG54       0.2591
     32  O        160.7820    0.3170   58.7140 O.2    54  ARG54      -0.2718
     33  CB       158.4120   -0.7440   60.4070 C.3    54  ARG54       0.0321
     34  CG       157.1710   -0.2060   61.1150 C.3    54  ARG54       0.0489
     35  CD       156.9820   -0.7700   62.5300 C.3    54  ARG54       0.2205
     36  NE       158.0900   -0.4580   63.4370 N.pl3  54  ARG54      -0.0865
     37  CZ       158.1180   -0.7920   64.7250 C.cat  54  ARG54       0.5346
     38  NH1      157.0970   -1.4460   65.2660 N.pl3  54  ARG54       0.1354
     39  NH2      159.1700   -0.4850   65.4670 N.pl3  54  ARG54       0.1354
     40  N        160.1110   -1.5320   57.6110 N.am   55  LYS55      -0.1980
     41  CA       161.4230   -1.8200   57.0220 C.3    55  LYS55       0.1596
     42  C        161.6970   -1.0290   55.7470 C.2    55  LYS55       0.2287
     43  O        162.8050   -1.0940   55.2050 O.2    55  LYS55      -0.2864
     44  CB       161.5480   -3.3160   56.7140 C.3    55  LYS55       0.0298
     45  CG       161.3720   -4.2110   57.9430 C.3    55  LYS55       0.0038
     46  CD       160.9390   -5.6320   57.5690 C.3    55  LYS55       0.0206
     47  CE       161.9880   -6.3300   56.7160 C.3    55  LYS55       0.1093
     48  NZ       161.5360   -7.6920   56.3200 N.3    55  LYS55      -0.1314
     49  N        162.5300    2.2030   53.9060 N.3    57  GLU57      -0.1245
     50  CA       163.2030    3.4640   54.1230 C.3    57  GLU57       0.1567
     51  C        162.8870    4.5230   53.0490 C.2    57  GLU57       0.2260
     52  O        162.7760    5.7110   53.3480 O.2    57  GLU57      -0.2867
     53  CB       164.7090    3.1790   54.2030 C.3    57  GLU57       0.0388
     54  CG       165.5690    4.3730   54.0260 C.3    57  GLU57       0.1160
     55  CD       167.0230    4.0410   54.0460 C.2    57  GLU57       0.3649
     56  OE1      167.4060    2.9590   53.5440 O.co2  57  GLU57      -0.2457
     57  OE2      167.7920    4.8840   54.5510 O.co2  57  GLU57      -0.2457
     58  N        152.4030    1.9660   57.9420 N.3    79  ARG79      -0.1245
     59  CA       153.7090    2.0130   58.5930 C.3    79  ARG79       0.1563
     60  C        153.5330    2.7480   59.9080 C.2    79  ARG79       0.2260
     61  O        154.1180    2.3720   60.9210 O.2    79  ARG79      -0.2867
     62  CB       154.7240    2.7450   57.7080 C.3    79  ARG79       0.0307
     63  CG       156.1890    2.5120   58.0500 C.3    79  ARG79       0.0489
     64  CD       157.0350    2.7500   56.8040 C.3    79  ARG79       0.2205
     65  NE       158.4750    2.7750   57.0390 N.pl3  79  ARG79      -0.0865
     66  CZ       159.0980    3.6880   57.7860 C.cat  79  ARG79       0.5346
     67  NH1      158.4010    4.6570   58.3790 N.pl3  79  ARG79       0.1354
     68  NH2      160.4200    3.6470   57.9320 N.pl3  79  ARG79       0.1354
     69  N        159.2530    4.3700   63.3790 N.3    85  GLU85      -0.1231
     70  CA       159.6870    5.6950   63.7830 C.3    85  GLU85       0.1699
     71  C        160.7920    6.2220   62.8940 C.2    85  GLU85       0.2592
     72  O        161.0420    7.4240   62.8840 O.2    85  GLU85      -0.2718
     73  CB       160.1740    5.6820   65.2240 C.3    85  GLU85       0.0402
     74  CG       159.1070    5.3670   66.2480 C.3    85  GLU85       0.1161
     75  CD       159.6900    5.2330   67.6480 C.2    85  GLU85       0.3649
     76  OE1      160.5490    4.3420   67.8350 O.co2  85  GLU85      -0.2457
     77  OE2      159.3010    6.0140   68.5530 O.co2  85  GLU85      -0.2457
     78  N        161.4560    5.3290   62.1560 N.am   86  ASP86      -0.1960
     79  CA       162.5450    5.7250   61.2520 C.3    86  ASP86       0.1840
     80  C        162.0420    6.7440   60.2420 C.2    86  ASP86       0.2621
     81  O        160.8400    6.9130   60.0690 O.2    86  ASP86      -0.2715
     82  CB       163.0770    4.5210   60.4750 C.3    86  ASP86       0.1450
     83  CG       163.8420    3.5470   61.3400 C.2    86  ASP86       0.3671
     84  OD1      163.2400    2.9200   62.2370 O.co2  86  ASP86      -0.2456
     85  OD2      165.0600    3.3940   61.1160 O.co2  86  ASP86      -0.2456
     86  N        162.9460    7.4280   59.5610 N.am   87  GLU87      -0.1977
     87  CA       162.4840    8.3800   58.5700 C.3    87  GLU87       0.1602
     88  C        162.2440    7.6700   57.2440 C.2    87  GLU87       0.2287
     89  O        162.9300    6.7000   56.9060 O.2    87  GLU87      -0.2864
     90  CB       163.4990    9.4880   58.3420 C.3    87  GLU87       0.0415
     91  CG       162.9090   10.6780   57.6100 C.3    87  GLU87       0.1163
     92  CD       163.9680   11.5570   56.9690 C.2    87  GLU87       0.3649
     93  OE1      164.9330   10.9890   56.4060 O.co2  87  GLU87      -0.2457
     94  OE2      163.8240   12.8080   57.0190 O.co2  87  GLU87      -0.2457
@<TRIPOS>BOND
     1    11     9    1
     2     8     9    2
     3     8     7    1
     4    26    25    2
     5     9    10    1
     6     7     6    1
     7    51    52    2
     8    51    50    1
     9     6     5    1
    10    25    24    1
    11    56    55   ar
    12    49    50    1
    13    54    55    1
    14    54    53    1
    15    55    57   ar
    16    50    53    1
    17     5     2    1
    18    28    27    1
    19     1     2    1
    20    24    27    1
    21    24    23    1
    22    43    42    2
    23     2     3    1
    24    23    14   am
    25    42    41    1
    26     3    12   am
    27     3     4    2
    28    48    47    1
    29    12    13    1
    30    93    92   ar
    31    44    41    1
    32    44    45    1
    33    47    46    1
    34    14    13    1
    35    14    15    2
    36    64    65    1
    37    64    63    1
    38    89    88    2
    39    92    94   ar
    40    92    91    1
    41    41    40    1
    42    65    66    2
    43    13    16    1
    44    88    87    1
    45    46    45    1
    46    91    90    1
    47    40    31   am
    48    62    63    1
    49    62    59    1
    50    66    68    1
    51    66    67    1
    52    58    59    1
    53    29    30    1
    54    90    87    1
    55    31    32    2
    56    31    30    1
    57    87    86    1
    58    16    17    1
    59    59    60    1
    60    30    33    1
    61    86    80   am
    62    17    18    1
    63    60    61    2
    64    81    80    2
    65    80    79    1
    66    33    34    1
    67    82    79    1
    68    82    83    1
    69    18    19    1
    70    34    35    1
    71    85    83   ar
    72    79    78    1
    73    83    84   ar
    74    19    20    2
    75    78    71   am
    76    35    36    1
    77    72    71    2
    78    71    70    1
    79    20    21    1
    80    20    22    1
    81    69    70    1
    82    36    37    2
    83    70    73    1
    84    37    38    1
    85    37    39    1
    86    73    74    1
    87    74    75    1
    88    75    76   ar
    89    75    77   ar
