@<TRIPOS>MOLECULE
tmp/2fkaA00.pdb
 92 85 0 0 0
SMALL
GASTEIGER

@<TRIPOS>ATOM
      1  N         35.0730  -92.3160  -73.5920 N.3    89  ALA89      -0.1245
      2  CA        35.5010  -91.1070  -74.2440 C.3    89  ALA89       0.1562
      3  C         34.9560  -91.0610  -75.6620 C.2    89  ALA89       0.2260
      4  O         35.1870  -91.9730  -76.4530 O.2    89  ALA89      -0.2867
      5  CB        37.0000  -91.0380  -74.2680 C.3    89  ALA89       0.0290
      6  N         34.5700  -88.1030  -78.8470 N.3    91  LYS91      -0.1245
      7  CA        35.0590  -86.7960  -79.2610 C.3    91  LYS91       0.1561
      8  C         34.0850  -85.6840  -78.9120 C.2    91  LYS91       0.2260
      9  O         34.4930  -84.6170  -78.4500 O.2    91  LYS91      -0.2867
     10  CB        35.3430  -86.7610  -80.7570 C.3    91  LYS91       0.0271
     11  CG        36.6770  -87.3830  -81.1420 C.3    91  LYS91       0.0035
     12  CD        36.9920  -87.1200  -82.5980 C.3    91  LYS91       0.0206
     13  CE        38.4090  -87.5430  -82.9510 C.3    91  LYS91       0.1093
     14  NZ        38.7540  -87.2220  -84.3800 N.3    91  LYS91      -0.1314
     15  N         34.1840  -84.8330  -75.2010 N.3    94  ILE94      -0.1231
     16  CA        35.4420  -84.1880  -74.8770 C.3    94  ILE94       0.1692
     17  C         35.3680  -82.7150  -75.2930 C.2    94  ILE94       0.2591
     18  O         35.7660  -81.8260  -74.5390 O.2    94  ILE94      -0.2718
     19  CB        36.6070  -84.8880  -75.5990 C.3    94  ILE94       0.0266
     20  CG1       36.7660  -86.3240  -75.0750 C.3    94  ILE94       0.0019
     21  CG2       37.8930  -84.1210  -75.4210 C.3    94  ILE94       0.0020
     22  CD1       37.8080  -87.1420  -75.8540 C.3    94  ILE94       0.0001
     23  N         34.8470  -82.4620  -76.4910 N.am   95  ILE95      -0.1980
     24  CA        34.7260  -81.0830  -76.9870 C.3    95  ILE95       0.1595
     25  C         33.7150  -80.3300  -76.1310 C.2    95  ILE95       0.2287
     26  O         33.8830  -79.1370  -75.8430 O.2    95  ILE95      -0.2864
     27  CB        34.3120  -81.0540  -78.4840 C.3    95  ILE95       0.0276
     28  CG1       35.3830  -81.6990  -79.3650 C.3    95  ILE95       0.0022
     29  CG2       34.0420  -79.6280  -78.9550 C.3    95  ILE95       0.0022
     30  CD1       36.7010  -81.0250  -79.3450 C.3    95  ILE95       0.0001
     31  N         33.1560  -80.9290  -72.9890 N.3    97  ALA97      -0.1231
     32  CA        33.8350  -80.6900  -71.7170 C.3    97  ALA97       0.1694
     33  C         34.7310  -79.4560  -71.8050 C.2    97  ALA97       0.2591
     34  O         34.7780  -78.6310  -70.8810 O.2    97  ALA97      -0.2718
     35  CB        34.6640  -81.9010  -71.3150 C.3    97  ALA97       0.0304
     36  N         35.4500  -79.3340  -72.9100 N.am   98  ALA98      -0.1980
     37  CA        36.3380  -78.1980  -73.1020 C.3    98  ALA98       0.1597
     38  C         35.5430  -76.9000  -73.1630 C.2    98  ALA98       0.2287
     39  O         35.9000  -75.9240  -72.5250 O.2    98  ALA98      -0.2864
     40  CB        37.1680  -78.3660  -74.3850 C.3    98  ALA98       0.0319
     41  N         35.8970  -77.7110  -68.3910 N.3   102  ALA102     -0.1231
     42  CA        36.4630  -78.8200  -67.6140 C.3   102  ALA102      0.1694
     43  C         37.9520  -78.6260  -67.4270 C.2   102  ALA102      0.2593
     44  O         38.6550  -78.2890  -68.3770 O.2   102  ALA102     -0.2718
     45  CB        36.2110  -80.1480  -68.3040 C.3   102  ALA102      0.0304
     46  N         38.4410  -78.8480  -66.2110 N.am  103  SER103     -0.1938
     47  CA        39.8710  -78.7030  -65.9270 C.3   103  SER103      0.2055
     48  C         40.6100  -79.9260  -66.4300 C.2   103  SER103      0.2644
     49  O         41.7700  -79.8490  -66.8410 O.2   103  SER103     -0.2714
     50  CB        40.1110  -78.5470  -64.4350 C.3   103  SER103      0.2130
     51  OG        39.3290  -77.5110  -63.8900 O.3   103  SER103     -0.2179
     52  N         39.9060  -81.0580  -66.4070 N.am  104  GLY104     -0.1939
     53  CA        40.4530  -82.3170  -66.8720 C.3   104  GLY104      0.2014
     54  C         39.3440  -83.2330  -67.3220 C.2   104  GLY104      0.2638
     55  O         38.1650  -82.9600  -67.0880 O.2   104  GLY104     -0.2714
     56  N         39.7330  -84.3320  -67.9650 N.am  105  TYR105     -0.1973
     57  CA        38.7960  -85.3010  -68.5020 C.3   105  TYR105      0.1639
     58  C         39.5240  -86.6380  -68.5090 C.2   105  TYR105      0.2290
     59  O         40.5610  -86.7850  -69.1870 O.2   105  TYR105     -0.2864
     60  CB        38.4280  -84.9220  -69.9270 C.3   105  TYR105      0.0560
     61  CG        37.3330  -85.7490  -70.5670 C.ar  105  TYR105     -0.0198
     62  CD1       36.0070  -85.3760  -70.4630 C.ar  105  TYR105     -0.0009
     63  CD2       37.6350  -86.8830  -71.3100 C.ar  105  TYR105     -0.0009
     64  CE1       35.0020  -86.1170  -71.0610 C.ar  105  TYR105      0.0417
     65  CE2       36.6290  -87.6370  -71.9130 C.ar  105  TYR105      0.0417
     66  CZ        35.3180  -87.2530  -71.7790 C.ar  105  TYR105      0.1957
     67  OH        34.3210  -88.0050  -72.3870 O.3   105  TYR105     -0.2866
     68  N         39.0750  -91.0870  -68.5490 N.3   107  VAL107     -0.1245
     69  CA        38.2140  -92.2450  -68.7850 C.3   107  VAL107      0.1561
     70  C         38.4170  -93.2860  -67.6920 C.2   107  VAL107      0.2260
     71  O         39.5390  -93.6310  -67.3190 O.2   107  VAL107     -0.2867
     72  CB        38.4910  -92.8740  -70.1710 C.3   107  VAL107      0.0252
     73  CG1       37.5320  -94.0580  -70.4340 C.3   107  VAL107      0.0019
     74  CG2       38.3220  -91.8350  -71.2540 C.3   107  VAL107      0.0019
     75  N         46.7880  -86.6200  -63.6110 N.3   118  LYS118     -0.1245
     76  CA        45.7620  -85.6820  -64.0430 C.3   118  LYS118      0.1561
     77  C         45.6010  -84.5390  -63.0360 C.2   118  LYS118      0.2260
     78  O         45.4400  -83.3850  -63.4320 O.2   118  LYS118     -0.2867
     79  CB        44.4310  -86.3970  -64.2790 C.3   118  LYS118      0.0271
     80  CG        44.4850  -87.5060  -65.3210 C.3   118  LYS118      0.0035
     81  CD        45.0100  -87.0130  -66.6770 C.3   118  LYS118      0.0206
     82  CE        45.0150  -88.1250  -67.7220 C.3   118  LYS118      0.1093
     83  NZ        45.6910  -87.6950  -68.9750 N.3   118  LYS118     -0.1314
     84  N         48.5750  -82.1410  -63.4420 N.3   121  LYS121     -0.1245
     85  CA        48.4710  -81.3030  -64.6230 C.3   121  LYS121      0.1561
     86  C         47.6050  -80.0780  -64.2920 C.2   121  LYS121      0.2260
     87  O         47.9210  -78.9550  -64.6700 O.2   121  LYS121     -0.2867
     88  CB        47.8390  -82.0530  -65.7930 C.3   121  LYS121      0.0271
     89  CG        48.7040  -83.1470  -66.4090 C.3   121  LYS121      0.0035
     90  CD        47.9010  -83.9520  -67.4680 C.3   121  LYS121      0.0206
     91  CE        47.5700  -83.1310  -68.7040 C.3   121  LYS121      0.1093
     92  NZ        48.7310  -83.0490  -69.6550 N.3   121  LYS121     -0.1314
@<TRIPOS>BOND
     1    14    13    1
     2    13    12    1
     3    12    11    1
     4    11    10    1
     5    10     7    1
     6    28    30    1
     7    28    27    1
     8     7     8    1
     9     7     6    1
    10    29    27    1
    11     8     9    2
    12    27    24    1
    13    24    23    1
    14    24    25    1
    15    23    17   am
    16     4     3    2
    17    25    26    2
    18    22    20    1
    19     3     2    1
    20    19    21    1
    21    19    20    1
    22    19    16    1
    23    17    16    1
    24    17    18    2
    25    15    16    1
    26    40    37    1
    27     5     2    1
    28     2     1    1
    29    38    37    1
    30    38    39    2
    31    37    36    1
    32    31    32    1
    33    36    33   am
    34    67    66    1
    35    65    66   ar
    36    65    63   ar
    37    33    32    1
    38    33    34    2
    39    66    64   ar
    40    32    35    1
    41    63    61   ar
    42    74    72    1
    43    64    62   ar
    44    61    62   ar
    45    61    60    1
    46    73    72    1
    47    72    69    1
    48    60    57    1
    49    92    91    1
    50    59    58    2
    51    83    82    1
    52    69    68    1
    53    69    70    1
    54    91    90    1
    55    58    57    1
    56    57    56    1
    57    41    42    1
    58    44    43    2
    59    45    42    1
    60    56    54   am
    61    82    81    1
    62    70    71    2
    63    42    43    1
    64    90    89    1
    65    43    46   am
    66    54    55    2
    67    54    53    1
    68    53    52    1
    69    49    48    2
    70    81    80    1
    71    48    52   am
    72    48    47    1
    73    89    88    1
    74    46    47    1
    75    47    50    1
    76    88    85    1
    77    80    79    1
    78    87    86    2
    79    85    86    1
    80    85    84    1
    81    50    51    1
    82    79    76    1
    83    76    75    1
    84    76    77    1
    85    78    77    2
