@<TRIPOS>MOLECULE
tmp/2fkeA00.pdb
 154 152 0 0 0
SMALL
GASTEIGER

@<TRIPOS>ATOM
      1  N         13.7190   21.1170   10.1010 N.3    26  TYR26      -0.1241
      2  CA        12.9570   22.0830    9.2720 C.3    26  TYR26       0.1605
      3  C         12.6650   21.4650    7.9090 C.2    26  TYR26       0.2264
      4  O         13.3410   20.4840    7.5490 O.2    26  TYR26      -0.2867
      5  CB        13.8390   23.3520    9.0730 C.3    26  TYR26       0.0534
      6  CG        15.0260   23.1750    8.1030 C.ar   26  TYR26      -0.0201
      7  CD1       14.9350   23.3330    6.7250 C.ar   26  TYR26      -0.0009
      8  CD2       16.2330   22.7010    8.6140 C.ar   26  TYR26      -0.0009
      9  CE1       16.0420   23.1620    5.9030 C.ar   26  TYR26       0.0417
     10  CE2       17.3620   22.5770    7.8060 C.ar   26  TYR26       0.0417
     11  CZ        17.2250   22.7380    6.4210 C.ar   26  TYR26       0.1957
     12  OH        18.3210   22.5380    5.5940 O.3    26  TYR26      -0.2866
     13  N         11.8660   22.1560   -1.1010 N.3    36  PHE36      -0.1227
     14  CA        13.2110   22.3180   -1.6810 C.3    36  PHE36       0.1736
     15  C         14.2470   21.6750   -0.7720 C.2    36  PHE36       0.2595
     16  O         15.3580   21.4770   -1.2610 O.2    36  PHE36      -0.2718
     17  CB        13.6370   23.6980   -2.0990 C.3    36  PHE36       0.0547
     18  CG        13.5430   24.7670   -1.0400 C.ar   36  PHE36      -0.0202
     19  CD1       14.6240   24.9560   -0.1650 C.ar   36  PHE36      -0.0042
     20  CD2       12.4130   25.5840   -0.9490 C.ar   36  PHE36      -0.0042
     21  CE1       14.5510   25.9050    0.8290 C.ar   36  PHE36      -0.0003
     22  CE2       12.3430   26.5830    0.0250 C.ar   36  PHE36      -0.0003
     23  CZ        13.4170   26.7160    0.9200 C.ar   36  PHE36      -0.0000
     24  N         13.9770   21.5170    0.5340 N.am   37  ASP37      -0.1974
     25  CA        14.9680   20.9130    1.4450 C.3    37  ASP37       0.1709
     26  C         14.2690   20.5490    2.7740 C.2    37  ASP37       0.2293
     27  O         13.2350   21.0980    3.0950 O.2    37  ASP37      -0.2864
     28  CB        16.0280   22.0210    1.7330 C.3    37  ASP37       0.1436
     29  CG        17.2820   21.5830    2.4760 C.2    37  ASP37       0.3671
     30  OD1       17.5640   20.3820    2.5430 O.co2  37  ASP37      -0.2456
     31  OD2       18.0430   22.4020    3.0160 O.co2  37  ASP37      -0.2456
     32  N         17.1250   13.8960    5.9360 N.3    42  ARG42      -0.1245
     33  CA        18.4950   13.4990    6.2420 C.3    42  ARG42       0.1563
     34  C         18.6010   12.7960    7.5770 C.2    42  ARG42       0.2260
     35  O         19.7420   12.3160    7.8480 O.2    42  ARG42      -0.2867
     36  CB        19.4410   14.7280    6.3130 C.3    42  ARG42       0.0307
     37  CG        19.6750   15.3860    4.9860 C.3    42  ARG42       0.0489
     38  CD        20.7780   16.3950    5.0650 C.3    42  ARG42       0.2205
     39  NE        20.3740   17.6200    5.7650 N.pl3  42  ARG42      -0.0865
     40  CZ        19.7210   18.6040    5.1820 C.cat  42  ARG42       0.5346
     41  NH1       19.2840   18.6440    3.9240 N.pl3  42  ARG42       0.1354
     42  NH2       19.4760   19.6740    5.9660 N.pl3  42  ARG42       0.1354
     43  N         19.4040   20.1590   12.3140 N.3    46  PHE46      -0.1241
     44  CA        20.2280   21.2950   11.9260 C.3    46  PHE46       0.1605
     45  C         20.5090   22.1270   13.1840 C.2    46  PHE46       0.2264
     46  O         19.6100   22.3800   13.9930 O.2    46  PHE46      -0.2867
     47  CB        19.5120   22.1010   10.8350 C.3    46  PHE46       0.0534
     48  CG        20.2400   23.3920   10.5180 C.ar   46  PHE46      -0.0203
     49  CD1       21.5110   23.3160    9.9310 C.ar   46  PHE46      -0.0042
     50  CD2       19.6730   24.6040   10.7890 C.ar   46  PHE46      -0.0042
     51  CE1       22.2300   24.4990    9.6610 C.ar   46  PHE46      -0.0003
     52  CE2       20.3460   25.7910   10.5380 C.ar   46  PHE46      -0.0003
     53  CZ        21.6410   25.7320    9.9750 C.ar   46  PHE46      -0.0000
     54  N         25.3350   35.8390   12.0210 N.3    53  GLN53      -0.1231
     55  CA        25.0940   35.7750   10.5790 C.3    53  GLN53       0.1698
     56  C         25.1850   34.3490   10.0420 C.2    53  GLN53       0.2595
     57  O         25.5550   34.1380    8.8570 O.2    53  GLN53      -0.2718
     58  CB        25.9680   36.7110    9.7390 C.3    53  GLN53       0.0381
     59  CG        25.5170   38.1610    9.8270 C.3    53  GLN53       0.0905
     60  CD        26.4960   39.1490    9.2270 C.2    53  GLN53       0.2608
     61  OE1       27.6900   39.2180    9.5940 O.2    53  GLN53      -0.2717
     62  NE2       25.9820   39.9440    8.2770 N.am   53  GLN53      -0.0878
     63  N         24.8250   33.3830   10.8640 N.am   54  GLU54      -0.1920
     64  CA        24.8270   31.9720   10.4760 C.3    54  GLU54       0.1949
     65  C         23.5800   31.5650    9.6960 C.2    54  GLU54       0.2659
     66  O         23.5240   30.4250    9.1420 O.2    54  GLU54      -0.2711
     67  CB        24.9380   31.0560   11.7020 C.2    54  GLU54       0.0111
     68  CG        26.3760   30.7800   12.2400 C.2    54  GLU54       0.0838
     69  CD        26.4520   29.9630   13.4660 C.2    54  GLU54       0.3877
     70  OE1       25.5100   29.1940   13.6890 O.co2  54  GLU54      -0.2406
     71  OE2       27.3470   30.0250   14.3130 O.co2  54  GLU54      -0.2406
     72  N         22.5280   32.3800    9.7170 N.am   55  VAL55      -0.1961
     73  CA        21.2990   32.0110    8.9900 C.3    55  VAL55       0.1727
     74  C         20.6720   33.3020    8.4300 C.2    55  VAL55       0.2616
     75  O         21.0340   34.4130    8.7940 O.2    55  VAL55      -0.2715
     76  CB        20.2470   31.2970    9.8860 C.3    55  VAL55       0.0290
     77  CG1       20.6230   29.8630   10.1960 C.3    55  VAL55       0.0023
     78  CG2       20.0320   32.0930   11.1660 C.3    55  VAL55       0.0023
     79  N         19.7760   33.0840    7.4770 N.am   56  ILE56      -0.1977
     80  CA        19.0520   34.2560    6.9050 C.3    56  ILE56       0.1596
     81  C         18.3020   34.9300    8.0690 C.2    56  ILE56       0.2287
     82  O         17.8430   34.3160    9.0650 O.2    56  ILE56      -0.2864
     83  CB        18.0660   33.8040    5.7700 C.3    56  ILE56       0.0276
     84  CG1       17.1280   32.6780    6.2860 C.3    56  ILE56       0.0022
     85  CG2       18.7810   33.3880    4.4570 C.3    56  ILE56       0.0022
     86  CD1       15.9080   32.4350    5.3330 C.3    56  ILE56       0.0001
     87  N         15.0930   33.7640    9.7750 N.3    59  TRP59      -0.1241
     88  CA        15.2350   32.6990   10.7750 C.3    59  TRP59       0.1605
     89  C         15.6770   33.2750   12.1290 C.2    59  TRP59       0.2264
     90  O         15.2360   32.8930   13.2030 O.2    59  TRP59      -0.2867
     91  CB        16.2620   31.6250   10.3650 C.3    59  TRP59       0.0550
     92  CG        15.7240   30.4310    9.7340 C.ar   59  TRP59       0.0003
     93  CD1       14.9040   30.4150    8.5980 C.ar   59  TRP59       0.0946
     94  CD2       15.8800   29.0570   10.1120 C.ar   59  TRP59       0.0152
     95  NE1       14.5570   29.1250    8.2850 N.ar   59  TRP59      -0.2442
     96  CE2       15.1060   28.2760    9.2240 C.ar   59  TRP59       0.0810
     97  CE3       16.6190   28.4430   11.1310 C.ar   59  TRP59       0.0012
     98  CZ2       15.1190   26.8880    9.2900 C.ar   59  TRP59       0.0191
     99  CZ3       16.5420   27.0810   11.2550 C.ar   59  TRP59       0.0001
    100  CH2       15.8020   26.3160   10.3430 C.ar   59  TRP59       0.0015
    101  N         15.3680   36.8130    3.3260 N.3    81  ALA81      -0.1231
    102  CA        15.8640   35.5380    2.7710 C.3    81  ALA81       0.1694
    103  C         16.8550   35.8370    1.6450 C.2    81  ALA81       0.2592
    104  O         17.8870   36.4720    1.8420 O.2    81  ALA81      -0.2718
    105  CB        14.7010   34.6410    2.3120 C.3    81  ALA81       0.0304
    106  N         16.5700   35.3970    0.4140 N.am   82  TYR82      -0.1976
    107  CA        17.4810   35.5300   -0.7460 C.3    82  TYR82       0.1639
    108  C         17.2000   36.6410   -1.7190 C.2    82  TYR82       0.2290
    109  O         17.9330   36.7460   -2.7510 O.2    82  TYR82      -0.2864
    110  CB        17.6930   34.1470   -1.4540 C.3    82  TYR82       0.0560
    111  CG        18.1150   33.1160   -0.4080 C.ar   82  TYR82      -0.0198
    112  CD1       19.4190   33.0660    0.0590 C.ar   82  TYR82      -0.0009
    113  CD2       17.1720   32.2090    0.0890 C.ar   82  TYR82      -0.0009
    114  CE1       19.8100   32.1280    1.0070 C.ar   82  TYR82       0.0417
    115  CE2       17.5550   31.2760    1.0550 C.ar   82  TYR82       0.0417
    116  CZ        18.8460   31.2480    1.5150 C.ar   82  TYR82       0.1957
    117  OH        19.1760   30.3210    2.4740 O.3    82  TYR82      -0.2866
    118  N         18.6020   31.7520   -4.5890 N.3    87  HIS87      -0.1241
    119  CA        19.7510   30.8370   -4.2160 C.3    87  HIS87       0.1621
    120  C         19.9350   29.9520   -5.4330 C.2    87  HIS87       0.2264
    121  O         19.0140   29.3030   -5.9410 O.2    87  HIS87      -0.2867
    122  CB        19.4510   30.0850   -2.9400 C.3    87  HIS87       0.0745
    123  CG        20.6060   29.1560   -2.5920 C.ar   87  HIS87       0.0817
    124  ND1       21.6600   29.5790   -1.8070 N.ar   87  HIS87      -0.2268
    125  CD2       20.8880   27.9160   -2.9780 C.ar   87  HIS87       0.1154
    126  CE1       22.5230   28.5910   -1.7130 C.ar   87  HIS87       0.1986
    127  NE2       22.0910   27.5850   -2.4110 N.ar   87  HIS87      -0.2212
    128  N         17.9820   26.6200   -6.9210 N.3    90  ILE90      -0.1231
    129  CA        17.0260   26.1000   -5.9240 C.3    90  ILE90       0.1692
    130  C         15.9020   27.0830   -5.6400 C.2    90  ILE90       0.2591
    131  O         14.7260   26.6680   -5.6090 O.2    90  ILE90      -0.2718
    132  CB        17.7170   25.7460   -4.5640 C.3    90  ILE90       0.0266
    133  CG1       18.9700   24.8200   -4.6320 C.3    90  ILE90       0.0019
    134  CG2       16.6770   25.0100   -3.6230 C.3    90  ILE90       0.0020
    135  CD1       18.6300   23.4300   -5.2550 C.3    90  ILE90       0.0001
    136  N         16.2880   28.3520   -5.4370 N.am   91  ILE91      -0.1980
    137  CA        15.2190   29.3740   -5.1440 C.3    91  ILE91       0.1595
    138  C         15.2630   30.5400   -6.1090 C.2    91  ILE91       0.2287
    139  O         16.3480   31.1090   -6.3250 O.2    91  ILE91      -0.2864
    140  CB        15.4790   29.8620   -3.6870 C.3    91  ILE91       0.0276
    141  CG1       15.2610   28.6230   -2.7400 C.3    91  ILE91       0.0022
    142  CG2       14.4660   30.9990   -3.4020 C.3    91  ILE91       0.0022
    143  CD1       15.7530   28.9720   -1.3170 C.3    91  ILE91       0.0001
    144  N          8.9660   27.9230    6.0540 N.3    99  PHE99      -0.1241
    145  CA         9.7120   26.8010    6.7090 C.3    99  PHE99       0.1605
    146  C          8.8500   26.2120    7.8720 C.2    99  PHE99       0.2264
    147  O          8.3030   26.9890    8.6470 O.2    99  PHE99      -0.2867
    148  CB        11.0070   27.2740    7.3680 C.3    99  PHE99       0.0534
    149  CG        12.0440   27.6690    6.3490 C.ar   99  PHE99      -0.0203
    150  CD1       12.1000   28.9520    5.8580 C.ar   99  PHE99      -0.0042
    151  CD2       13.0780   26.7330    6.0690 C.ar   99  PHE99      -0.0042
    152  CE1       13.1360   29.3580    4.9780 C.ar   99  PHE99      -0.0003
    153  CE2       14.1040   27.1670    5.2040 C.ar   99  PHE99      -0.0003
    154  CZ        14.0950   28.4310    4.6370 C.ar   99  PHE99      -0.0000
@<TRIPOS>BOND
     1   128   129    1
     2   139   138    2
     3   138   137    1
     4   121   120    2
     5   129   130    1
     6   129   132    1
     7   130   131    2
     8   130   136   am
     9   136   137    1
    10   120   119    1
    11   135   133    1
    12   137   140    1
    13   133   132    1
    14   118   119    1
    15   132   134    1
    16   119   122    1
    17   140   142    1
    18   140   141    1
    19   125   123   ar
    20   125   127   ar
    21   122   123    1
    22   109   108    2
    23   141   143    1
    24   123   124   ar
    25   127   126   ar
    26    17    14    1
    27    17    18    1
    28   124   126   ar
    29   108   107    1
    30    14    13    1
    31    14    15    1
    32   110   107    1
    33   110   111    1
    34    16    15    2
    35    18    20   ar
    36    18    19   ar
    37    20    22   ar
    38    15    24   am
    39   107   106    1
    40   111   112   ar
    41   111   113   ar
    42    19    21   ar
    43    22    23   ar
    44   112   114   ar
    45   113   115   ar
    46   106   103   am
    47    24    25    1
    48    21    23   ar
    49   114   116   ar
    50   115   116   ar
    51    25    28    1
    52    25    26    1
    53   116   117    1
    54   103   104    2
    55   103   102    1
    56    28    29    1
    57   105   102    1
    58    29    30   ar
    59    29    31   ar
    60   102   101    1
    61    26    27    2
    62    41    40    1
    63    85    83    1
    64   154   152   ar
    65   154   153   ar
    66   152   150   ar
    67    37    38    1
    68    37    36    1
    69    38    39    1
    70    40    39    2
    71    40    42    1
    72   153   151   ar
    73    86    84    1
    74    12    11    1
    75    83    84    1
    76    83    80    1
    77   150   149   ar
    78     9    11   ar
    79     9     7   ar
    80    32    33    1
    81   144   145    1
    82   151   149   ar
    83    33    36    1
    84    33    34    1
    85   149   148    1
    86    11    10   ar
    87   145   148    1
    88   145   146    1
    89     7     6   ar
    90    80    79    1
    91    80    81    1
    92    79    74   am
    93     4     3    2
    94    34    35    2
    95    10     8   ar
    96   146   147    2
    97     3     2    1
    98    81    82    2
    99     6     8   ar
   100     6     5    1
   101    62    60   am
   102    95    93   ar
   103    95    96   ar
   104    74    75    2
   105    74    73    1
   106    93    92   ar
   107    57    56    2
   108    73    72    1
   109    73    76    1
   110     5     2    1
   111    66    65    2
   112    96    98   ar
   113    96    94   ar
   114    60    61    2
   115    60    59    1
   116     2     1    1
   117    98   100   ar
   118    51    49   ar
   119    51    53   ar
   120    65    72   am
   121    65    64    1
   122    92    94   ar
   123    92    91    1
   124    58    59    1
   125    58    55    1
   126    87    88    1
   127    76    77    1
   128    76    78    1
   129    49    48   ar
   130    53    52   ar
   131    56    55    1
   132    56    63   am
   133    94    97   ar
   134   100    99   ar
   135    91    88    1
   136    64    63    1
   137    64    67    1
   138    48    50   ar
   139    48    47    1
   140    52    50   ar
   141    55    54    1
   142    88    89    1
   143    47    44    1
   144    97    99   ar
   145    67    68    2
   146    44    43    1
   147    44    45    1
   148    89    90    2
   149    68    69    1
   150    45    46    2
   151    69    70   ar
   152    69    71   ar
