@<TRIPOS>MOLECULE
tmp/2fkfA00.pdb
 153 145 0 0 0
SMALL
GASTEIGER

@<TRIPOS>ATOM
      1  N         46.9540   38.3580   10.9750 N.3     7  ARG7       -0.1245
      2  CA        46.4230   39.3290   11.9350 C.3     7  ARG7        0.1563
      3  C         45.2750   40.1570   11.3570 C.2     7  ARG7        0.2260
      4  O         44.8230   39.9080   10.2500 O.2     7  ARG7       -0.2867
      5  CB        47.5500   40.2450   12.4200 C.3     7  ARG7        0.0307
      6  CG        48.7970   39.4710   12.8590 C.3     7  ARG7        0.0489
      7  CD        49.6210   40.2440   13.8680 C.3     7  ARG7        0.2205
      8  NE        50.1340   41.4800   13.2960 N.pl3   7  ARG7       -0.0865
      9  CZ        50.7870   42.4120   13.9870 C.cat   7  ARG7        0.5346
     10  NH1       51.0480   42.2380   15.2700 N.pl3   7  ARG7        0.1354
     11  NH2       51.2140   43.5110   13.3770 N.pl3   7  ARG7        0.1354
     12  N         45.1060   43.4530   10.4420 N.3     9  TYR9       -0.1241
     13  CA        45.4320   44.4090    9.3640 C.3     9  TYR9        0.1605
     14  C         46.6930   44.0440    8.5640 C.2     9  TYR9        0.2264
     15  O         47.1240   44.8040    7.6860 O.2     9  TYR9       -0.2867
     16  CB        45.5410   45.8200    9.9570 C.3     9  TYR9        0.0534
     17  CG        44.4560   46.0900   10.9920 C.ar    9  TYR9       -0.0201
     18  CD1       43.1160   45.8230   10.7030 C.ar    9  TYR9       -0.0009
     19  CD2       44.7700   46.5800   12.2680 C.ar    9  TYR9       -0.0009
     20  CE1       42.1170   46.0380   11.6450 C.ar    9  TYR9        0.0417
     21  CE2       43.7740   46.8080   13.2190 C.ar    9  TYR9        0.0417
     22  CZ        42.4540   46.5310   12.9000 C.ar    9  TYR9        0.1957
     23  OH        41.4510   46.7370   13.8210 O.3     9  TYR9       -0.2866
     24  N         52.2180   39.0780   10.1130 N.3    12  ARG12      -0.1245
     25  CA        53.4120   39.3950   10.8940 C.3    12  ARG12       0.1563
     26  C         53.8380   38.1590   11.6700 C.2    12  ARG12       0.2260
     27  O         53.0050   37.5220   12.3200 O.2    12  ARG12      -0.2867
     28  CB        53.1130   40.5270   11.8780 C.3    12  ARG12       0.0307
     29  CG        54.3410   41.1090   12.5900 C.3    12  ARG12       0.0489
     30  CD        55.1680   42.0030   11.6680 C.3    12  ARG12       0.2205
     31  NE        54.3760   43.1110   11.1260 N.pl3  12  ARG12      -0.0865
     32  CZ        54.1280   44.2550   11.7680 C.cat  12  ARG12       0.5346
     33  NH1       54.6040   44.4730   12.9870 N.pl3  12  ARG12       0.1354
     34  NH2       53.3860   45.1840   11.1910 N.pl3  12  ARG12       0.1354
     35  N         58.2050   48.2040   12.7420 N.3   100  HIS100     -0.1226
     36  CA        59.1520   48.7050   13.7380 C.3   100  HIS100      0.1752
     37  C         59.6240   47.6100   14.7030 C.2   100  HIS100      0.2596
     38  O         60.3340   47.8920   15.6630 O.2   100  HIS100     -0.2718
     39  CB        58.5090   49.8460   14.5320 C.3   100  HIS100      0.0759
     40  CG        57.3370   49.4180   15.3560 C.ar  100  HIS100      0.0818
     41  ND1       57.4750   48.8470   16.6020 N.ar  100  HIS100     -0.2268
     42  CD2       56.0090   49.4500   15.1030 C.ar  100  HIS100      0.1154
     43  CE1       56.2800   48.5620   17.0870 C.ar  100  HIS100      0.1986
     44  NE2       55.3730   48.9240   16.2000 N.ar  100  HIS100     -0.2212
     45  N         59.2320   46.3670   14.4470 N.am  101  ASN101     -0.1974
     46  CA        59.5520   45.2440   15.3370 C.3   101  ASN101      0.1688
     47  C         61.0490   44.9070   15.3470 C.2   101  ASN101      0.2292
     48  O         61.7990   45.4270   14.5220 O.2   101  ASN101     -0.2864
     49  CB        58.7300   44.0180   14.9300 C.3   101  ASN101      0.1181
     50  CG        57.2300   44.1870   15.2070 C.2   101  ASN101      0.2629
     51  OD1       56.4090   43.4250   14.6940 O.2   101  ASN101     -0.2716
     52  ND2       56.8760   45.1700   16.0290 N.am  101  ASN101     -0.0877
     53  N         41.4200   57.7110   19.9570 N.3   276  LYS276     -0.1245
     54  CA        42.4330   58.1130   20.9410 C.3   276  LYS276      0.1561
     55  C         42.8560   59.5870   20.7900 C.2   276  LYS276      0.2260
     56  O         43.7150   60.0590   21.5370 O.2   276  LYS276     -0.2867
     57  CB        43.6640   57.2060   20.8030 C.3   276  LYS276      0.0271
     58  CG        43.3630   55.7460   21.0270 C.3   276  LYS276      0.0035
     59  CD        44.5300   54.8580   20.6190 C.3   276  LYS276      0.0206
     60  CE        45.4580   54.5980   21.7760 C.3   276  LYS276      0.1093
     61  NZ        46.5920   53.7380   21.3600 N.3   276  LYS276     -0.1314
     62  N         40.6670   52.6970   15.6730 N.3   297  THR297     -0.1203
     63  CA        42.1330   52.5810   15.5490 C.3   297  THR297      0.1994
     64  C         42.4860   51.5610   14.4760 C.2   297  THR297      0.2618
     65  O         41.6910   50.6670   14.1810 O.2   297  THR297     -0.2717
     66  CB        42.7980   52.1540   16.8920 C.3   297  THR297      0.1784
     67  OG1       42.2350   50.9130   17.3550 O.3   297  THR297     -0.2211
     68  CG2       42.5880   53.2090   17.9650 C.3   297  THR297      0.0376
     69  N         43.6760   51.6970   13.9030 N.am  298  GLY298     -0.1942
     70  CA        44.1450   50.8010   12.8490 C.3   298  GLY298      0.2014
     71  C         44.9010   51.5900   11.8020 C.2   298  GLY298      0.2638
     72  O         45.1790   52.7740   12.0030 O.2   298  GLY298     -0.2714
     73  N         45.3290   50.9250   10.7350 N.am  299  HIS299     -0.1973
     74  CA        45.7410   51.6280    9.5180 C.3   299  HIS299      0.1656
     75  C         44.8320   51.2570    8.3590 C.2   299  HIS299      0.2291
     76  O         44.4130   52.1340    7.5920 O.2   299  HIS299     -0.2864
     77  CB        47.2370   51.3710    9.1640 C.3   299  HIS299      0.0771
     78  CG        47.5130   50.0360    8.5270 C.ar  299  HIS299      0.0820
     79  ND1       47.5460   49.8500    7.1590 N.ar  299  HIS299     -0.2267
     80  CD2       47.7750   48.8220    9.0730 C.ar  299  HIS299      0.1154
     81  CE1       47.8150   48.5830    6.8910 C.ar  299  HIS299      0.1986
     82  NE2       47.9560   47.9370    8.0350 N.ar  299  HIS299     -0.2212
     83  N         46.0040   58.9340   12.8120 N.3   316  GLU316     -0.1245
     84  CA        45.7360   58.2780   14.0730 C.3   316  GLU316      0.1567
     85  C         46.9130   58.3900   15.0230 C.2   316  GLU316      0.2260
     86  O         48.0270   58.7390   14.6290 O.2   316  GLU316     -0.2867
     87  CB        45.3270   56.8290   13.8370 C.3   316  GLU316      0.0388
     88  CG        46.2110   56.0590   12.9370 C.3   316  GLU316      0.1160
     89  CD        47.3340   55.4090   13.6930 C.2   316  GLU316      0.3649
     90  OE1       47.0490   54.6320   14.6310 O.co2 316  GLU316     -0.2457
     91  OE2       48.5080   55.6680   13.3530 O.co2 316  GLU316     -0.2457
     92  N         48.9870   56.5040   16.5180 N.3   318  SER318     -0.1217
     93  CA        50.2550   55.7830   16.3170 C.3   318  SER318      0.1889
     94  C         51.1740   56.4380   15.2870 C.2   318  SER318      0.2288
     95  O         52.2780   55.9580   15.0670 O.2   318  SER318     -0.2866
     96  CB        50.0140   54.3130   15.9750 C.3   318  SER318      0.2089
     97  OG        49.4500   53.6370   17.0860 O.3   318  SER318     -0.2183
     98  N         50.4170   57.3340   11.9320 N.3   320  HIS320     -0.1241
     99  CA        50.0720   57.1900   10.5260 C.3   320  HIS320      0.1621
    100  C         49.2160   58.4010   10.0860 C.2   320  HIS320      0.2264
    101  O         48.1760   58.6820   10.6850 O.2   320  HIS320     -0.2867
    102  CB        49.2960   55.8910   10.2890 C.3   320  HIS320      0.0745
    103  CG        50.1140   54.6440   10.4270 C.ar  320  HIS320      0.0817
    104  ND1       50.1840   53.9180   11.6010 N.ar  320  HIS320     -0.2268
    105  CD2       50.8430   53.9570    9.5180 C.ar  320  HIS320      0.1154
    106  CE1       50.9490   52.8540   11.4090 C.ar  320  HIS320      0.1986
    107  NE2       51.3600   52.8560   10.1540 N.ar  320  HIS320     -0.2212
    108  N         39.6840   50.5450   25.7220 N.3   412  ARG412     -0.1245
    109  CA        39.5360   49.6050   24.6300 C.3   412  ARG412      0.1563
    110  C         40.4480   48.3980   24.8570 C.2   412  ARG412      0.2260
    111  O         41.4020   48.4640   25.6450 O.2   412  ARG412     -0.2867
    112  CB        39.8580   50.2790   23.3030 C.3   412  ARG412      0.0307
    113  CG        41.2920   50.7540   23.1760 C.3   412  ARG412      0.0489
    114  CD        41.6160   51.1780   21.7720 C.3   412  ARG412      0.2205
    115  NE        41.5190   50.0970   20.7890 N.pl3 412  ARG412     -0.0865
    116  CZ        42.5130   49.3130   20.3800 C.cat 412  ARG412      0.5346
    117  NH1       43.7380   49.4280   20.8680 N.pl3 412  ARG412      0.1354
    118  NH2       42.2670   48.3900   19.4590 N.pl3 412  ARG412      0.1354
    119  N         43.2190   45.8690   23.4920 N.3   414  SER414     -0.1202
    120  CA        44.2610   45.7640   22.5000 C.3   414  SER414      0.2020
    121  C         43.9280   44.5790   21.6130 C.2   414  SER414      0.2619
    122  O         43.5820   43.5160   22.1240 O.2   414  SER414     -0.2717
    123  CB        45.6200   45.5470   23.1770 C.3   414  SER414      0.2103
    124  OG        46.5680   45.0020   22.2860 O.3   414  SER414     -0.2182
    125  N         44.0380   44.7450   20.2980 N.am  415  ASN415     -0.1960
    126  CA        43.8320   43.6040   19.4050 C.3   415  ASN415      0.1819
    127  C         44.9030   42.5210   19.5770 C.2   415  ASN415      0.2622
    128  O         44.5850   41.3360   19.5650 O.2   415  ASN415     -0.2715
    129  CB        43.7600   44.0440   17.9430 C.3   415  ASN415      0.1195
    130  CG        42.5390   44.8850   17.6460 C.2   415  ASN415      0.2630
    131  OD1       41.4280   44.5870   18.0970 O.2   415  ASN415     -0.2716
    132  ND2       42.7380   45.9520   16.8880 N.am  415  ASN415     -0.0877
    133  N         46.1600   42.9260   19.7620 N.am  416  THR416     -0.1937
    134  CA        47.2880   41.9940   19.6740 C.3   416  THR416      0.2028
    135  C         47.8270   41.4950   21.0120 C.2   416  THR416      0.2642
    136  O         48.5220   40.4790   21.0450 O.2   416  THR416     -0.2714
    137  CB        48.4560   42.6170   18.8760 C.3   416  THR416      0.1808
    138  OG1       48.8150   43.8870   19.4360 O.3   416  THR416     -0.2208
    139  CG2       48.0430   42.8220   17.4340 C.3   416  THR416      0.0379
    140  N         47.5160   42.1960   22.1050 N.am  417  THR417     -0.1950
    141  CA        48.0820   41.8650   23.4190 C.3   417  THR417      0.1897
    142  C         46.9480   41.7260   24.4330 C.2   417  THR417      0.2313
    143  O         45.8760   42.2680   24.2120 O.2   417  THR417     -0.2863
    144  CB        49.1000   42.9480   23.8690 C.3   417  THR417      0.1794
    145  OG1       48.4380   44.2020   24.0110 O.3   417  THR417     -0.2208
    146  CG2       50.2010   43.1090   22.8410 C.3   417  THR417      0.0378
    147  N         43.6160   49.3150   27.1380 N.3   421  VAL421     -0.1245
    148  CA        44.3130   50.5640   26.8590 C.3   421  VAL421      0.1561
    149  C         43.3760   51.7150   27.1860 C.2   421  VAL421      0.2260
    150  O         42.2270   51.7220   26.7330 O.2   421  VAL421     -0.2867
    151  CB        44.6800   50.6850   25.3700 C.3   421  VAL421      0.0252
    152  CG1       45.3980   52.0280   25.1000 C.3   421  VAL421      0.0019
    153  CG2       45.5290   49.4980   24.9240 C.3   421  VAL421      0.0019
@<TRIPOS>BOND
     1    81    79   ar
     2    81    82   ar
     3    79    78   ar
     4    76    75    2
     5    15    14    2
     6    82    80   ar
     7    75    74    1
     8    78    80   ar
     9    78    77    1
    10    14    13    1
    11    77    74    1
    12    13    16    1
    13    13    12    1
    14   105   107   ar
    15   105   103   ar
    16    74    73    1
    17    16    17    1
    18   100    99    1
    19   100   101    2
    20    24    25    1
    21   107   106   ar
    22     4     3    2
    23   102   103    1
    24   102    99    1
    25   103   104   ar
    26    99    98    1
    27    18    17   ar
    28    18    20   ar
    29    73    71   am
    30    25    26    1
    31    25    28    1
    32     1     2    1
    33    17    19   ar
    34    31    30    1
    35    31    32    2
    36    34    32    1
    37     3     2    1
    38   106   104   ar
    39    20    22   ar
    40    30    29    1
    41    26    27    2
    42    32    33    1
    43    71    72    2
    44    71    70    1
    45    28    29    1
    46     2     5    1
    47    19    21   ar
    48     5     6    1
    49    35    36    1
    50    83    84    1
    51    70    69    1
    52     6     7    1
    53    22    21   ar
    54    22    23    1
    55    88    89    1
    56    88    87    1
    57     8     7    1
    58     8     9    2
    59    91    89   ar
    60    11     9    1
    61    89    90   ar
    62    36    39    1
    63    36    37    1
    64    87    84    1
    65    69    64   am
    66     9    10    1
    67    84    85    1
    68    65    64    2
    69    45    37   am
    70    45    46    1
    71    64    63    1
    72    48    47    2
    73    39    40    1
    74    86    85    2
    75    51    50    2
    76    37    38    2
    77    49    50    1
    78    49    46    1
    79    95    94    2
    80    42    40   ar
    81    42    44   ar
    82    50    52   am
    83    94    93    1
    84    46    47    1
    85    40    41   ar
    86    63    62    1
    87    63    66    1
    88    96    93    1
    89    96    97    1
    90    44    43   ar
    91    93    92    1
    92    41    43   ar
    93   132   130   am
    94    66    67    1
    95    66    68    1
    96   139   137    1
    97   130   129    1
    98   130   131    2
    99   129   126    1
   100   137   138    1
   101   137   134    1
   102   126   127    1
   103   126   125    1
   104   118   116    1
   105   128   127    2
   106   127   133   am
   107   134   133    1
   108   134   135    1
   109    53    54    1
   110   125   121   am
   111   116   115    2
   112   116   117    1
   113    59    58    1
   114    59    60    1
   115   115   114    1
   116    55    54    1
   117    55    56    2
   118    57    54    1
   119    57    58    1
   120   135   136    2
   121   135   140   am
   122    61    60    1
   123   121   122    2
   124   121   120    1
   125   114   113    1
   126   140   141    1
   127   124   123    1
   128   120   123    1
   129   120   119    1
   130   146   144    1
   131   113   112    1
   132   112   109    1
   133   141   144    1
   134   141   142    1
   135   144   145    1
   136   143   142    2
   137   109   110    1
   138   109   108    1
   139   110   111    2
   140   153   151    1
   141   152   151    1
   142   151   148    1
   143   150   149    2
   144   148   147    1
   145   148   149    1
