@<TRIPOS>MOLECULE
tmp/2fkyB01.pdb
 151 144 0 0 0
SMALL
GASTEIGER

@<TRIPOS>ATOM
      1  N         38.6750    8.9330   52.4880 N.3    99  GLU99      -0.1231
      2  CA        38.9060   10.1450   51.7210 C.3    99  GLU99       0.1699
      3  C         39.9900   10.0070   50.6590 C.2    99  GLU99       0.2593
      4  O         39.7970   10.3990   49.5130 O.2    99  GLU99      -0.2718
      5  CB        39.2640   11.2910   52.6750 C.3    99  GLU99       0.0402
      6  CG        38.1230   11.6780   53.6210 C.3    99  GLU99       0.1161
      7  CD        38.5700   12.6490   54.7020 C.2    99  GLU99       0.3649
      8  OE1       39.5960   13.3370   54.4960 O.co2  99  GLU99      -0.2457
      9  OE2       37.8910   12.7310   55.7530 O.co2  99  GLU99      -0.2457
     10  N         41.1370    9.4690   51.0640 N.am  100  GLY100     -0.1942
     11  CA        42.2500    9.2990   50.1490 C.3   100  GLY100      0.2014
     12  C         43.1170   10.5440   50.1330 C.2   100  GLY100      0.2639
     13  O         42.9540   11.4320   50.9550 O.2   100  GLY100     -0.2714
     14  N         44.0350   10.6170   49.1820 N.am  101  GLU101     -0.1963
     15  CA        44.9190   11.7650   49.0800 C.3   101  GLU101      0.1733
     16  C         45.2940   12.0010   47.6270 C.2   101  GLU101      0.2616
     17  O         44.7520   11.3720   46.7370 O.2   101  GLU101     -0.2715
     18  CB        46.1670   11.5340   49.9220 C.3   101  GLU101      0.0429
     19  CG        46.5880   10.0910   50.0190 C.3   101  GLU101      0.1163
     20  CD        47.7050    9.8830   51.0200 C.2   101  GLU101      0.3649
     21  OE1       48.8800   10.0220   50.6220 O.co2 101  GLU101     -0.2457
     22  OE2       47.4060    9.5830   52.1980 O.co2 101  GLU101     -0.2457
     23  N         46.2240   12.9160   47.3890 N.am  102  ARG102     -0.1977
     24  CA        46.6300   13.2010   46.0240 C.3   102  ARG102      0.1597
     25  C         47.9780   12.5710   45.7080 C.2   102  ARG102      0.2287
     26  O         48.8400   12.4620   46.5730 O.2   102  ARG102     -0.2864
     27  CB        46.7130   14.7100   45.8030 C.3   102  ARG102      0.0334
     28  CG        45.4000   15.4700   46.0740 C.3   102  ARG102      0.0492
     29  CD        44.2470   14.8800   45.2550 C.3   102  ARG102      0.2205
     30  NE        44.5620   14.8460   43.8310 N.pl3 102  ARG102     -0.0865
     31  CZ        44.4710   15.8890   43.0120 C.cat 102  ARG102      0.5346
     32  NH1       44.0570   17.0680   43.4670 N.pl3 102  ARG102      0.1354
     33  NH2       44.8230   15.7540   41.7430 N.pl3 102  ARG102      0.1354
     34  N         42.0890   15.5920   40.1360 N.3   110  TRP110     -0.1241
     35  CA        41.4320   14.8780   41.2210 C.3   110  TRP110      0.1605
     36  C         40.5250   13.7160   40.8200 C.2   110  TRP110      0.2264
     37  O         40.5240   12.6720   41.4720 O.2   110  TRP110     -0.2867
     38  CB        40.6390   15.8510   42.0960 C.3   110  TRP110      0.0550
     39  CG        39.4110   16.3630   41.4590 C.ar  110  TRP110      0.0003
     40  CD1       39.2880   17.4590   40.6500 C.ar  110  TRP110      0.0946
     41  CD2       38.1140   15.7790   41.5470 C.ar  110  TRP110      0.0152
     42  NE1       37.9850   17.5900   40.2300 N.ar  110  TRP110     -0.2442
     43  CE2       37.2450   16.5690   40.7670 C.ar  110  TRP110      0.0810
     44  CE3       37.6000   14.6580   42.2090 C.ar  110  TRP110      0.0012
     45  CZ2       35.8920   16.2740   40.6330 C.ar  110  TRP110      0.0191
     46  CZ3       36.2620   14.3660   42.0760 C.ar  110  TRP110      0.0001
     47  CH2       35.4200   15.1700   41.2930 C.ar  110  TRP110      0.0015
     48  N         42.8060   10.6820   40.0460 N.3   113  ASP113     -0.1239
     49  CA        43.8450   10.3060   40.9930 C.3   113  ASP113      0.1674
     50  C         43.5460    8.9360   41.5920 C.2   113  ASP113      0.2266
     51  O         42.5640    8.7610   42.2980 O.2   113  ASP113     -0.2867
     52  CB        43.9460   11.3480   42.1090 C.3   113  ASP113      0.1410
     53  CG        45.2900   11.3370   42.7900 C.2   113  ASP113      0.3668
     54  OD1       45.8480   10.2450   42.9890 O.co2 113  ASP113     -0.2456
     55  OD2       45.7850   12.4270   43.1300 O.co2 113  ASP113     -0.2456
     56  N         42.6060    8.5350   45.2910 N.3   116  ALA116     -0.1245
     57  CA        41.3240    9.0390   45.7710 C.3   116  ALA116      0.1562
     58  C         40.6080    7.9340   46.5380 C.2   116  ALA116      0.2260
     59  O         40.6980    6.7680   46.1830 O.2   116  ALA116     -0.2867
     60  CB        40.4580    9.4940   44.5960 C.3   116  ALA116      0.0290
     61  N         34.8900    8.8860   49.3950 N.3   119  ILE119     -0.1231
     62  CA        34.1130   10.1100   49.2390 C.3   119  ILE119      0.1678
     63  C         34.2260   10.7750   47.8610 C.2   119  ILE119      0.2434
     64  O         33.2330   10.9410   47.1950 O.2   119  ILE119     -0.2733
     65  CB        34.4330   11.1150   50.3620 C.3   119  ILE119      0.0265
     66  CG1       33.8710   10.5630   51.6760 C.3   119  ILE119      0.0019
     67  CG2       33.8040   12.4790   50.0620 C.3   119  ILE119      0.0020
     68  CD1       34.2040   11.3870   52.8930 C.3   119  ILE119      0.0001
     69  N         35.4380   11.1550   47.4140 N.am  120  PRO120     -0.2729
     70  CA        35.4850   11.7810   46.0870 C.3   120  PRO120      0.1401
     71  C         35.0190   10.8450   44.9560 C.2   120  PRO120      0.2269
     72  O         34.4470   11.2940   43.9620 O.2   120  PRO120     -0.2865
     73  CB        36.9490   12.2130   45.9520 C.3   120  PRO120      0.0296
     74  CG        37.6730   11.2450   46.8340 C.3   120  PRO120      0.0237
     75  CD        36.7720   11.1310   48.0310 C.3   120  PRO120      0.0939
     76  N         29.1070   17.9210   56.4500 N.3   143  LEU143     -0.1245
     77  CA        30.2810   17.3580   57.0850 C.3   143  LEU143      0.1561
     78  C         30.2200   17.7560   58.5490 C.2   143  LEU143      0.2260
     79  O         30.6050   18.8740   58.9410 O.2   143  LEU143     -0.2867
     80  CB        31.5490   17.8840   56.4230 C.3   143  LEU143      0.0270
     81  CG        32.8520   17.3570   57.0300 C.3   143  LEU143      0.0019
     82  CD1       32.7440   15.8510   57.2760 C.3   143  LEU143      0.0001
     83  CD2       34.0100   17.6870   56.0950 C.3   143  LEU143      0.0001
     84  N         32.1110   22.4440   56.8680 N.3   155  LEU155     -0.1245
     85  CA        31.8360   22.9260   55.5090 C.3   155  LEU155      0.1561
     86  C         31.1930   24.3120   55.5100 C.2   155  LEU155      0.2260
     87  O         30.8950   24.8660   54.4630 O.2   155  LEU155     -0.2867
     88  CB        30.9200   21.9590   54.7540 C.3   155  LEU155      0.0270
     89  CG        31.5340   20.6000   54.3900 C.3   155  LEU155      0.0019
     90  CD1       30.5700   19.7900   53.5470 C.3   155  LEU155      0.0001
     91  CD2       32.8100   20.8330   53.6270 C.3   155  LEU155      0.0001
     92  N         35.3670   19.0780   44.0400 N.3   194  TYR194     -0.1241
     93  CA        36.7210   19.2070   44.5630 C.3   194  TYR194      0.1605
     94  C         36.9010   20.4230   45.4610 C.2   194  TYR194      0.2264
     95  O         37.5200   20.3310   46.5170 O.2   194  TYR194     -0.2867
     96  CB        37.7650   19.2650   43.4500 C.3   194  TYR194      0.0534
     97  CG        39.1580   19.0790   44.0020 C.ar  194  TYR194     -0.0201
     98  CD1       39.5250   17.8740   44.5880 C.ar  194  TYR194     -0.0009
     99  CD2       40.0870   20.1200   43.9930 C.ar  194  TYR194     -0.0009
    100  CE1       40.7610   17.7040   45.1490 C.ar  194  TYR194      0.0417
    101  CE2       41.3360   19.9600   44.5550 C.ar  194  TYR194      0.0417
    102  CZ        41.6650   18.7450   45.1330 C.ar  194  TYR194      0.1957
    103  OH        42.9010   18.5570   45.7010 O.3   194  TYR194     -0.2866
    104  N         35.5580   19.8690   48.9040 N.3   197  LEU197     -0.1231
    105  CA        36.4520   19.0510   49.7150 C.3   197  LEU197      0.1693
    106  C         37.6760   19.8460   50.1840 C.2   197  LEU197      0.2591
    107  O         38.1590   19.6300   51.2940 O.2   197  LEU197     -0.2718
    108  CB        36.9050   17.8120   48.9390 C.3   197  LEU197      0.0284
    109  CG        35.7740   16.9270   48.3960 C.3   197  LEU197      0.0019
    110  CD1       36.3570   15.7260   47.6610 C.3   197  LEU197      0.0001
    111  CD2       34.8880   16.4650   49.5390 C.3   197  LEU197      0.0001
    112  N         38.1850   20.7530   49.3470 N.am  198  GLU198     -0.1979
    113  CA        39.3450   21.5640   49.7430 C.3   198  GLU198      0.1602
    114  C         38.9840   22.4450   50.9290 C.2   198  GLU198      0.2287
    115  O         39.7490   22.5780   51.8650 O.2   198  GLU198     -0.2864
    116  CB        39.8170   22.4630   48.6050 C.3   198  GLU198      0.0415
    117  CG        40.5460   21.7820   47.5040 C.3   198  GLU198      0.1163
    118  CD        41.0230   22.7850   46.4840 C.2   198  GLU198      0.3649
    119  OE1       42.2550   22.9650   46.3340 O.co2 198  GLU198     -0.2457
    120  OE2       40.1520   23.4100   45.8450 O.co2 198  GLU198     -0.2457
    121  N         36.8030   21.8400   53.1240 N.3   200  GLY200     -0.1210
    122  CA        36.7040   20.9700   54.2760 C.3   200  GLY200      0.1956
    123  C         38.0840   20.7630   54.8690 C.2   200  GLY200      0.2611
    124  O         38.2900   20.9630   56.0700 O.2   200  GLY200     -0.2717
    125  N         39.0360   20.3760   54.0240 N.am  201  ALA201     -0.1979
    126  CA        40.4000   20.1470   54.4760 C.3   201  ALA201      0.1597
    127  C         40.9740   21.3730   55.1890 C.2   201  ALA201      0.2287
    128  O         41.4990   21.2520   56.2940 O.2   201  ALA201     -0.2864
    129  CB        41.2840   19.7650   53.2930 C.3   201  ALA201      0.0319
    130  N         39.6000   21.9950   58.5520 N.3   204  ARG204     -0.1245
    131  CA        40.0730   20.9820   59.4910 C.3   204  ARG204      0.1563
    132  C         41.4480   21.3720   60.0320 C.2   204  ARG204      0.2260
    133  O         41.7760   21.0740   61.1730 O.2   204  ARG204     -0.2867
    134  CB        40.1720   19.6090   58.8230 C.3   204  ARG204      0.0307
    135  CG        38.8630   18.8980   58.7100 C.3   204  ARG204      0.0489
    136  CD        39.0580   17.6180   57.9980 C.3   204  ARG204      0.2205
    137  NE        37.8570   16.8030   58.0270 N.pl3 204  ARG204     -0.0865
    138  CZ        37.6910   15.7170   57.2850 C.cat 204  ARG204      0.5346
    139  NH1       38.6610   15.3400   56.4590 N.pl3 204  ARG204      0.1354
    140  NH2       36.5710   15.0090   57.3720 N.pl3 204  ARG204      0.1354
    141  N         30.5190   12.4970   56.9970 N.3   222  PHE222     -0.1241
    142  CA        30.3080   13.2080   55.7380 C.3   222  PHE222      0.1605
    143  C         29.0860   12.5520   55.1280 C.2   222  PHE222      0.2264
    144  O         29.1300   11.3790   54.7500 O.2   222  PHE222     -0.2867
    145  CB        31.5020   13.0140   54.8090 C.3   222  PHE222      0.0534
    146  CG        31.4590   13.8710   53.5730 C.ar  222  PHE222     -0.0203
    147  CD1       30.6010   13.5720   52.5210 C.ar  222  PHE222     -0.0042
    148  CD2       32.2770   14.9850   53.4680 C.ar  222  PHE222     -0.0042
    149  CE1       30.5620   14.3680   51.3860 C.ar  222  PHE222     -0.0003
    150  CE2       32.2490   15.7850   52.3430 C.ar  222  PHE222     -0.0003
    151  CZ        31.3880   15.4820   51.2910 C.ar  222  PHE222     -0.0000
@<TRIPOS>BOND
     1    48    49    1
     2    34    35    1
     3    42    40   ar
     4    42    43   ar
     5    45    43   ar
     6    45    47   ar
     7    40    39   ar
     8    43    41   ar
     9    36    35    1
    10    36    37    2
    11    49    50    1
    12    49    52    1
    13    35    38    1
    14    47    46   ar
    15    39    41   ar
    16    39    38    1
    17    41    44   ar
    18    50    51    2
    19    33    31    1
    20    46    44   ar
    21    52    53    1
    22    53    54   ar
    23    53    55   ar
    24    31    32    1
    25    31    30    2
    26    96    97    1
    27    96    93    1
    28    30    29    1
    29    72    71    2
    30    99    97   ar
    31    99   101   ar
    32    97    98   ar
    33    92    93    1
    34   101   102   ar
    35    93    94    1
    36    98   100   ar
    37    60    57    1
    38    71    70    1
    39   102   100   ar
    40   102   103    1
    41    29    28    1
    42    56    57    1
    43    94    95    2
    44    25    24    1
    45    25    26    2
    46    57    58    1
    47    27    24    1
    48    27    28    1
    49   120   118   ar
    50    73    70    1
    51    73    74    1
    52    24    23    1
    53    70    69    1
    54    59    58    2
    55   119   118   ar
    56   118   117    1
    57    17    16    2
    58    74    75    1
    59    64    63    2
    60    23    16   am
    61    69    63   am
    62    69    75    1
    63   117   116    1
    64    16    15    1
    65   110   109    1
    66    63    62    1
    67   109   108    1
    68   109   111    1
    69   116   113    1
    70   104   105    1
    71   108   105    1
    72    15    14    1
    73    15    18    1
    74    14    12   am
    75    62    61    1
    76    62    65    1
    77   112   113    1
    78   112   106   am
    79     4     3    2
    80   105   106    1
    81   113   114    1
    82    18    19    1
    83    19    20    1
    84    67    65    1
    85    12    11    1
    86    12    13    2
    87    11    10    1
    88   106   107    2
    89    65    66    1
    90    21    20   ar
    91     3    10   am
    92     3     2    1
    93   114   115    2
    94    20    22   ar
    95   151   149   ar
    96   151   150   ar
    97   149   147   ar
    98    66    68    1
    99     2     1    1
   100     2     5    1
   101   150   148   ar
   102   147   146   ar
   103     5     6    1
   104   121   122    1
   105   129   126    1
   106   148   146   ar
   107    90    89    1
   108   146   145    1
   109     6     7    1
   110    91    89    1
   111   125   126    1
   112   125   123   am
   113   122   123    1
   114    89    88    1
   115    87    86    2
   116   126   127    1
   117     8     7   ar
   118     7     9   ar
   119   144   143    2
   120    88    85    1
   121   145   142    1
   122   123   124    2
   123   143   142    1
   124   127   128    2
   125    85    86    1
   126    85    84    1
   127   142   141    1
   128    83    81    1
   129    80    81    1
   130    80    77    1
   131    76    77    1
   132   139   138    1
   133    81    82    1
   134    77    78    1
   135   138   140    1
   136   138   137    2
   137   136   137    1
   138   136   135    1
   139    78    79    2
   140   130   131    1
   141   135   134    1
   142   134   131    1
   143   131   132    1
   144   132   133    2
