@<TRIPOS>MOLECULE
tmp/2fl2A01.pdb
 151 144 0 0 0
SMALL
GASTEIGER

@<TRIPOS>ATOM
      1  N         20.3010    8.8090  106.5200 N.3    99  GLU99      -0.1231
      2  CA        20.0200   10.0080  107.3270 C.3    99  GLU99       0.1699
      3  C         18.9830    9.8520  108.3640 C.2    99  GLU99       0.2593
      4  O         19.1560   10.3130  109.4660 O.2    99  GLU99      -0.2718
      5  CB        19.6260   11.1920  106.4490 C.3    99  GLU99       0.0402
      6  CG        20.3870   11.2880  105.1610 C.3    99  GLU99       0.1161
      7  CD        19.9650   12.4930  104.3680 C.2    99  GLU99       0.3649
      8  OE1       18.7690   12.8570  104.4360 O.co2  99  GLU99      -0.2457
      9  OE2       20.8310   13.0630  103.6720 O.co2  99  GLU99      -0.2457
     10  N         17.8720    9.2130  108.0230 N.am  100  GLY100     -0.1942
     11  CA        16.8140    9.0450  108.9980 C.3   100  GLY100      0.2014
     12  C         15.7970   10.1690  108.9210 C.2   100  GLY100      0.2639
     13  O         15.8260   10.9750  108.0250 O.2   100  GLY100     -0.2714
     14  N         14.8900   10.2220  109.8850 N.am  101  GLU101     -0.1963
     15  CA        13.8530   11.2450  109.8790 C.3   101  GLU101      0.1733
     16  C         13.5500   11.6410  111.2690 C.2   101  GLU101      0.2616
     17  O         14.1750   11.1570  112.2070 O.2   101  GLU101     -0.2715
     18  CB        12.5850   10.6940  109.2280 C.3   101  GLU101      0.0429
     19  CG        12.7900   10.0480  107.8680 C.3   101  GLU101      0.1163
     20  CD        11.4950    9.4670  107.3180 C.2   101  GLU101      0.3649
     21  OE1       11.4320    9.1400  106.1090 O.co2 101  GLU101     -0.2457
     22  OE2       10.5330    9.3340  108.1120 O.co2 101  GLU101     -0.2457
     23  N         12.5840   12.5350  111.4380 N.am  102  ARG102     -0.1977
     24  CA        12.1990   12.9480  112.7720 C.3   102  ARG102      0.1597
     25  C         10.8530   12.2840  113.1170 C.2   102  ARG102      0.2287
     26  O         10.0120   12.0160  112.2090 O.2   102  ARG102     -0.2864
     27  CB        12.0470   14.4800  112.8780 C.3   102  ARG102      0.0334
     28  CG        13.3140   15.3230  112.6000 C.3   102  ARG102      0.0492
     29  CD        14.5480   14.8540  113.3570 C.3   102  ARG102      0.2205
     30  NE        14.2700   14.5680  114.7580 N.pl3 102  ARG102     -0.0865
     31  CZ        14.2430   15.4640  115.7430 C.cat 102  ARG102      0.5346
     32  NH1       14.4880   16.7440  115.5040 N.pl3 102  ARG102      0.1354
     33  NH2       13.9570   15.0730  116.9810 N.pl3 102  ARG102      0.1354
     34  N         16.6450   15.3120  118.8050 N.3   110  TRP110     -0.1241
     35  CA        17.4240   14.6580  117.7510 C.3   110  TRP110      0.1605
     36  C         18.3970   13.5360  118.2300 C.2   110  TRP110      0.2264
     37  O         18.6960   12.6150  117.4870 O.2   110  TRP110     -0.2867
     38  CB        18.2090   15.7020  116.9500 C.3   110  TRP110      0.0550
     39  CG        19.4790   16.1550  117.6040 C.ar  110  TRP110      0.0003
     40  CD1       19.6400   17.2270  118.4370 C.ar  110  TRP110      0.0946
     41  CD2       20.7720   15.5390  117.4840 C.ar  110  TRP110      0.0152
     42  NE1       20.9560   17.3160  118.8370 N.ar  110  TRP110     -0.2442
     43  CE2       21.6640   16.2930  118.2680 C.ar  110  TRP110      0.0810
     44  CE3       21.2520   14.4250  116.7960 C.ar  110  TRP110      0.0012
     45  CZ2       23.0140   15.9630  118.3740 C.ar  110  TRP110      0.0191
     46  CZ3       22.5880   14.1040  116.9060 C.ar  110  TRP110      0.0001
     47  CH2       23.4520   14.8670  117.6860 C.ar  110  TRP110      0.0015
     48  N         15.9050   10.3760  118.9410 N.3   113  ASP113     -0.1239
     49  CA        14.8790    9.9810  117.9950 C.3   113  ASP113      0.1674
     50  C         15.2260    8.6630  117.4500 C.2   113  ASP113      0.2266
     51  O         16.2500    8.4820  116.8140 O.2   113  ASP113     -0.2867
     52  CB        14.7690   11.0120  116.8780 C.3   113  ASP113      0.1410
     53  CG        13.4790   10.8980  116.1110 C.2   113  ASP113      0.3668
     54  OD1       13.0540   11.9220  115.5630 O.co2 113  ASP113     -0.2456
     55  OD2       12.8890    9.8000  116.0450 O.co2 113  ASP113     -0.2456
     56  N         16.2780    8.3490  113.7720 N.3   116  ALA116     -0.1245
     57  CA        17.5530    8.8790  113.2810 C.3   116  ALA116      0.1562
     58  C         18.3140    7.7700  112.4820 C.2   116  ALA116      0.2260
     59  O         18.1960    6.5830  112.8040 O.2   116  ALA116     -0.2867
     60  CB        18.4060    9.3530  114.4390 C.3   116  ALA116      0.0290
     61  N         24.0860    8.7960  109.5690 N.3   119  ILE119     -0.1231
     62  CA        24.8010   10.0450  109.7570 C.3   119  ILE119      0.1678
     63  C         24.5670   10.7430  111.2550 C.2   119  ILE119      0.2434
     64  O         25.5260   10.9520  111.9850 O.2   119  ILE119     -0.2733
     65  CB        24.4480   11.0270  108.6410 C.3   119  ILE119      0.0265
     66  CG1       24.8970   10.4530  107.2890 C.3   119  ILE119      0.0019
     67  CG2       25.0930   12.3570  108.9030 C.3   119  ILE119      0.0020
     68  CD1       24.5230   11.3230  106.0850 C.3   119  ILE119      0.0001
     69  N         23.3180   11.0570  111.6450 N.am  120  PRO120     -0.2729
     70  CA        23.2010   11.6600  112.9770 C.3   120  PRO120      0.1401
     71  C         23.7640   10.8280  114.1070 C.2   120  PRO120      0.2269
     72  O         24.4680   11.3620  114.9730 O.2   120  PRO120     -0.2865
     73  CB        21.7000   11.8740  113.1420 C.3   120  PRO120      0.0296
     74  CG        21.1020   10.8380  112.2480 C.3   120  PRO120      0.0237
     75  CD        21.9890   10.9150  111.0350 C.3   120  PRO120      0.0939
     76  N         29.7400   17.9750  102.8050 N.3   143  LEU143     -0.1245
     77  CA        28.6400   17.4200  102.0330 C.3   143  LEU143      0.1561
     78  C         28.7550   17.7590  100.5960 C.2   143  LEU143      0.2260
     79  O         28.4110   18.8410  100.1130 O.2   143  LEU143     -0.2867
     80  CB        27.3140   17.9240  102.6000 C.3   143  LEU143      0.0270
     81  CG        26.0210   17.2400  102.1520 C.3   143  LEU143      0.0019
     82  CD1       26.2230   15.7310  102.0380 C.3   143  LEU143      0.0001
     83  CD2       24.9170   17.5580  103.1540 C.3   143  LEU143      0.0001
     84  N         26.8530   22.4920  102.2720 N.3   155  LEU155     -0.1245
     85  CA        27.0390   23.0400  103.6200 C.3   155  LEU155      0.1561
     86  C         27.5570   24.5340  103.6510 C.2   155  LEU155      0.2260
     87  O         27.3110   25.2200  104.6200 O.2   155  LEU155     -0.2867
     88  CB        27.9900   22.1480  104.4190 C.3   155  LEU155      0.0270
     89  CG        27.5000   20.7200  104.6690 C.3   155  LEU155      0.0019
     90  CD1       28.5420   19.9210  105.4340 C.3   155  LEU155      0.0001
     91  CD2       26.1900   20.7730  105.4290 C.3   155  LEU155      0.0001
     92  N         23.2440   18.9150  115.0540 N.3   194  TYR194     -0.1241
     93  CA        21.9330   19.1230  114.4520 C.3   194  TYR194      0.1605
     94  C         21.7860   20.2920  113.5120 C.2   194  TYR194      0.2264
     95  O         21.2780   20.0980  112.4310 O.2   194  TYR194     -0.2867
     96  CB        20.8540   19.2150  115.5230 C.3   194  TYR194      0.0534
     97  CG        19.4670   19.0120  114.9640 C.ar  194  TYR194     -0.0201
     98  CD1       19.1520   17.8540  114.2750 C.ar  194  TYR194     -0.0009
     99  CD2       18.4750   19.9720  115.1300 C.ar  194  TYR194     -0.0009
    100  CE1       17.8940   17.6490  113.7680 C.ar  194  TYR194      0.0417
    101  CE2       17.2050   19.7800  114.6200 C.ar  194  TYR194      0.0417
    102  CZ        16.9200   18.6140  113.9390 C.ar  194  TYR194      0.1957
    103  OH        15.6600   18.4170  113.4040 O.3   194  TYR194     -0.2866
    104  N         23.3880   19.8290  110.1210 N.3   197  LEU197     -0.1231
    105  CA        22.5390   18.9410  109.3280 C.3   197  LEU197      0.1693
    106  C         21.2910   19.7150  108.8300 C.2   197  LEU197      0.2591
    107  O         20.8500   19.5160  107.7090 O.2   197  LEU197     -0.2718
    108  CB        22.0890   17.7320  110.1500 C.3   197  LEU197      0.0284
    109  CG        23.1990   16.8400  110.6960 C.3   197  LEU197      0.0019
    110  CD1       22.5840   15.6380  111.3790 C.3   197  LEU197      0.0001
    111  CD2       24.1140   16.4010  109.5820 C.3   197  LEU197      0.0001
    112  N         20.7260   20.5780  109.6690 N.am  198  GLU198     -0.1979
    113  CA        19.5540   21.3700  109.2770 C.3   198  GLU198      0.1602
    114  C         19.9060   22.3210  108.0870 C.2   198  GLU198      0.2287
    115  O         19.1610   22.4440  107.1190 O.2   198  GLU198     -0.2864
    116  CB        19.0410   22.2020  110.4580 C.3   198  GLU198      0.0415
    117  CG        18.3870   21.3840  111.5630 C.3   198  GLU198      0.1163
    118  CD        17.8430   22.2440  112.6950 C.2   198  GLU198      0.3649
    119  OE1       16.6080   22.3520  112.8430 O.co2 198  GLU198     -0.2457
    120  OE2       18.6520   22.8190  113.4460 O.co2 198  GLU198     -0.2457
    121  N         22.2210   21.9530  105.8090 N.3   200  GLY200     -0.1210
    122  CA        22.3080   21.1330  104.6120 C.3   200  GLY200      0.1956
    123  C         20.9440   20.7490  104.0630 C.2   200  GLY200      0.2611
    124  O         20.7700   20.6720  102.8550 O.2   200  GLY200     -0.2717
    125  N         19.9730   20.5040  104.9450 N.am  201  ALA201     -0.1979
    126  CA        18.6240   20.1410  104.5030 C.3   201  ALA201      0.1597
    127  C         17.9340   21.3340  103.8090 C.2   201  ALA201      0.2287
    128  O         17.2630   21.1830  102.7860 O.2   201  ALA201     -0.2864
    129  CB        17.7860   19.6840  105.6660 C.3   201  ALA201      0.0319
    130  N         19.4900   22.1070  100.4390 N.3   204  ARG204     -0.1245
    131  CA        19.1320   20.9760   99.5920 C.3   204  ARG204      0.1563
    132  C         17.7770   21.1310   99.0100 C.2   204  ARG204      0.2260
    133  O         17.4790   20.6020   97.9490 O.2   204  ARG204     -0.2867
    134  CB        19.2030   19.7200  100.4300 C.3   204  ARG204      0.0307
    135  CG        19.2440   18.4410   99.6780 C.3   204  ARG204      0.0489
    136  CD        19.4060   17.3460  100.6940 C.3   204  ARG204      0.2205
    137  NE        20.7310   16.7460  100.6880 N.pl3 204  ARG204     -0.0865
    138  CZ        21.1190   15.8330  101.5730 C.cat 204  ARG204      0.5346
    139  NH1       20.2740   15.4460  102.5220 N.pl3 204  ARG204      0.1354
    140  NH2       22.3280   15.2860  101.4930 N.pl3 204  ARG204      0.1354
    141  N         28.4520   12.4470  102.3180 N.3   222  PHE222     -0.1241
    142  CA        28.6350   13.1230  103.5800 C.3   222  PHE222      0.1605
    143  C         29.8670   12.5740  104.2340 C.2   222  PHE222      0.2264
    144  O         29.8950   11.4170  104.6410 O.2   222  PHE222     -0.2867
    145  CB        27.4220   12.9010  104.4630 C.3   222  PHE222      0.0534
    146  CG        27.4610   13.6970  105.7190 C.ar  222  PHE222     -0.0203
    147  CD1       28.3150   13.3410  106.7530 C.ar  222  PHE222     -0.0042
    148  CD2       26.6730   14.8230  105.8610 C.ar  222  PHE222     -0.0042
    149  CE1       28.3870   14.1110  107.8930 C.ar  222  PHE222     -0.0003
    150  CE2       26.7470   15.6010  107.0180 C.ar  222  PHE222     -0.0003
    151  CZ        27.5980   15.2400  108.0280 C.ar  222  PHE222     -0.0000
@<TRIPOS>BOND
     1   133   132    2
     2   132   131    1
     3   131   134    1
     4   131   130    1
     5   135   134    1
     6   135   136    1
     7    79    78    2
     8    78    77    1
     9   137   136    1
    10   137   138    2
    11   140   138    1
    12   138   139    1
    13    77    80    1
    14    77    76    1
    15    82    81    1
    16    81    80    1
    17    81    83    1
    18    84    85    1
    19   141   142    1
    20   128   127    2
    21   124   123    2
    22   142   143    1
    23   142   145    1
    24    85    86    1
    25    85    88    1
    26    86    87    2
    27     9     7   ar
    28   127   126    1
    29   123   122    1
    30   123   125   am
    31   143   144    2
    32     7     8   ar
    33     7     6    1
    34    88    89    1
    35   145   146    1
    36   126   125    1
    37   126   129    1
    38   122   121    1
    39    89    91    1
    40    89    90    1
    41     6     5    1
    42   146   148   ar
    43   146   147   ar
    44   148   150   ar
    45    68    66    1
    46    21    20   ar
    47     5     2    1
    48     1     2    1
    49   147   149   ar
    50   150   151   ar
    51   115   114    2
    52    66    65    1
    53    20    19    1
    54    20    22   ar
    55     2     3    1
    56   107   106    2
    57    19    18    1
    58   149   151   ar
    59    10     3   am
    60    10    11    1
    61    13    12    2
    62   114   113    1
    63     3     4    2
    64    65    67    1
    65    65    62    1
    66   106   105    1
    67   106   112   am
    68    12    11    1
    69    12    14   am
    70    18    15    1
    71   113   112    1
    72   113   116    1
    73   105   104    1
    74   105   108    1
    75    61    62    1
    76   111   109    1
    77    62    63    1
    78    15    14    1
    79    15    16    1
    80   108   109    1
    81   116   117    1
    82   109   110    1
    83    75    69    1
    84    75    74    1
    85    63    69   am
    86    63    64    2
    87    16    23   am
    88    16    17    2
    89    23    24    1
    90   117   118    1
    91    69    70    1
    92    26    25    2
    93    74    73    1
    94    95    94    2
    95    58    59    2
    96    58    57    1
    97    28    27    1
    98    28    29    1
    99   118   119   ar
   100   118   120   ar
   101    24    27    1
   102    24    25    1
   103    70    73    1
   104    70    71    1
   105    57    56    1
   106    57    60    1
   107    29    30    1
   108   103   102    1
   109    94    93    1
   110   100   102   ar
   111   100    98   ar
   112   102   101   ar
   113    71    72    2
   114    98    97   ar
   115    93    92    1
   116    93    96    1
   117   101    99   ar
   118    30    31    2
   119    97    99   ar
   120    97    96    1
   121    32    31    1
   122    54    53   ar
   123    31    33    1
   124    55    53   ar
   125    53    52    1
   126    44    46   ar
   127    44    41   ar
   128    51    50    2
   129    52    49    1
   130    46    47   ar
   131    38    39    1
   132    38    35    1
   133    50    49    1
   134    41    39   ar
   135    41    43   ar
   136    37    36    2
   137    39    40   ar
   138    47    45   ar
   139    35    36    1
   140    35    34    1
   141    49    48    1
   142    43    45   ar
   143    43    42   ar
   144    40    42   ar
