@<TRIPOS>MOLECULE
tmp/2fl6A01.pdb
 151 144 0 0 0
SMALL
GASTEIGER

@<TRIPOS>ATOM
      1  N         20.3180    8.7590  106.4260 N.3    99  GLU99      -0.1231
      2  CA        20.0100    9.9540  107.2100 C.3    99  GLU99       0.1699
      3  C         18.9320    9.7230  108.2660 C.2    99  GLU99       0.2593
      4  O         19.0830   10.1180  109.4140 O.2    99  GLU99      -0.2718
      5  CB        19.5720   11.1070  106.2930 C.3    99  GLU99       0.0402
      6  CG        20.3330   11.2010  104.9640 C.3    99  GLU99       0.1161
      7  CD        20.0320   12.4720  104.1880 C.2    99  GLU99       0.3649
      8  OE1       18.8580   12.9010  104.1370 O.co2  99  GLU99      -0.2457
      9  OE2       20.9830   13.0390  103.6170 O.co2  99  GLU99      -0.2457
     10  N         17.8380    9.0820  107.8810 N.am  100  GLY100     -0.1942
     11  CA        16.7820    8.8530  108.8430 C.3   100  GLY100      0.2014
     12  C         15.7990    9.9940  108.7920 C.2   100  GLY100      0.2639
     13  O         15.8250   10.7860  107.8830 O.2   100  GLY100     -0.2714
     14  N         14.9420   10.0890  109.7970 N.am  101  GLU101     -0.1963
     15  CA        13.9230   11.1230  109.8140 C.3   101  GLU101      0.1733
     16  C         13.5700   11.5170  111.2320 C.2   101  GLU101      0.2616
     17  O         14.1190   10.9990  112.1820 O.2   101  GLU101     -0.2715
     18  CB        12.6570   10.6080  109.1350 C.3   101  GLU101      0.0429
     19  CG        12.8470   10.0930  107.7230 C.3   101  GLU101      0.1163
     20  CD        11.6490    9.3020  107.2430 C.2   101  GLU101      0.3649
     21  OE1       11.6460    8.8810  106.0670 O.co2 101  GLU101     -0.2457
     22  OE2       10.7110    9.0980  108.0480 O.co2 101  GLU101     -0.2457
     23  N         12.6180   12.4290  111.3570 N.am  102  ARG102     -0.1977
     24  CA        12.1800   12.8730  112.6600 C.3   102  ARG102      0.1597
     25  C         10.8360   12.2150  112.9860 C.2   102  ARG102      0.2287
     26  O          9.9950   12.0450  112.1050 O.2   102  ARG102     -0.2864
     27  CB        12.0400   14.3960  112.6610 C.3   102  ARG102      0.0334
     28  CG        13.3480   15.1540  112.4230 C.3   102  ARG102      0.0492
     29  CD        14.5030   14.6130  113.2880 C.3   102  ARG102      0.2205
     30  NE        14.1430   14.3890  114.6890 N.pl3 102  ARG102     -0.0865
     31  CZ        14.1160   15.3270  115.6350 C.cat 102  ARG102      0.5346
     32  NH1       14.4350   16.5840  115.3520 N.pl3 102  ARG102      0.1354
     33  NH2       13.7660   15.0010  116.8750 N.pl3 102  ARG102      0.1354
     34  N         16.5340   15.2580  118.7570 N.3   110  TRP110     -0.1241
     35  CA        17.2690   14.5990  117.6840 C.3   110  TRP110      0.1605
     36  C         18.2190   13.4830  118.1530 C.2   110  TRP110      0.2264
     37  O         18.4860   12.5460  117.4090 O.2   110  TRP110     -0.2867
     38  CB        18.0410   15.6430  116.8650 C.3   110  TRP110      0.0550
     39  CG        19.3090   16.1200  117.5070 C.ar  110  TRP110      0.0003
     40  CD1       19.4630   17.1980  118.3210 C.ar  110  TRP110      0.0946
     41  CD2       20.6100   15.5400  117.3570 C.ar  110  TRP110      0.0152
     42  NE1       20.7800   17.3300  118.6860 N.ar  110  TRP110     -0.2442
     43  CE2       21.5050   16.3230  118.1080 C.ar  110  TRP110      0.0810
     44  CE3       21.1010   14.4310  116.6660 C.ar  110  TRP110      0.0012
     45  CZ2       22.8690   16.0390  118.1800 C.ar  110  TRP110      0.0191
     46  CZ3       22.4550   14.1470  116.7400 C.ar  110  TRP110      0.0001
     47  CH2       23.3230   14.9460  117.4920 C.ar  110  TRP110      0.0015
     48  N         15.6760   10.3680  118.8880 N.3   113  ASP113     -0.1239
     49  CA        14.7010    9.9590  117.8970 C.3   113  ASP113      0.1674
     50  C         15.1120    8.5910  117.3530 C.2   113  ASP113      0.2266
     51  O         16.1960    8.4160  116.8010 O.2   113  ASP113     -0.2867
     52  CB        14.6310   10.9990  116.7820 C.3   113  ASP113      0.1410
     53  CG        13.3510   10.9140  115.9760 C.2   113  ASP113      0.3668
     54  OD1       12.8560   11.9780  115.5700 O.co2 113  ASP113     -0.2456
     55  OD2       12.8360    9.8000  115.7330 O.co2 113  ASP113     -0.2456
     56  N         16.2330    8.2460  113.6190 N.3   116  ALA116     -0.1245
     57  CA        17.5020    8.7790  113.1520 C.3   116  ALA116      0.1562
     58  C         18.2420    7.6900  112.3570 C.2   116  ALA116      0.2260
     59  O         18.1380    6.4970  112.6710 O.2   116  ALA116     -0.2867
     60  CB        18.3410    9.2230  114.3390 C.3   116  ALA116      0.0290
     61  N         24.0030    8.7700  109.6550 N.3   119  ILE119     -0.1231
     62  CA        24.7080   10.0270  109.8040 C.3   119  ILE119      0.1678
     63  C         24.5420   10.7150  111.1650 C.2   119  ILE119      0.2434
     64  O         25.5170   11.0170  111.8140 O.2   119  ILE119     -0.2733
     65  CB        24.3270   10.9810  108.6530 C.3   119  ILE119      0.0265
     66  CG1       24.8420   10.3920  107.3360 C.3   119  ILE119      0.0019
     67  CG2       24.9500   12.3490  108.8610 C.3   119  ILE119      0.0020
     68  CD1       24.6160   11.2680  106.1180 C.3   119  ILE119      0.0001
     69  N         23.3020   10.9840  111.6000 N.am  120  PRO120     -0.2729
     70  CA        23.1420   11.6360  112.8990 C.3   120  PRO120      0.1401
     71  C         23.6710   10.7830  114.0540 C.2   120  PRO120      0.2269
     72  O         24.2610   11.3050  115.0030 O.2   120  PRO120     -0.2865
     73  CB        21.6370   11.8620  112.9780 C.3   120  PRO120      0.0296
     74  CG        21.0820   10.7270  112.1730 C.3   120  PRO120      0.0237
     75  CD        21.9910   10.7290  110.9810 C.3   120  PRO120      0.0939
     76  N         29.6530   17.7860  102.7010 N.3   143  LEU143     -0.1245
     77  CA        28.5700   17.1610  101.9560 C.3   143  LEU143      0.1561
     78  C         28.6850   17.5900  100.4880 C.2   143  LEU143      0.2260
     79  O         28.3010   18.7060  100.0940 O.2   143  LEU143     -0.2867
     80  CB        27.2230   17.5690  102.5690 C.3   143  LEU143      0.0270
     81  CG        25.9280   16.9920  101.9730 C.3   143  LEU143      0.0019
     82  CD1       26.0190   15.4880  101.8760 C.3   143  LEU143      0.0001
     83  CD2       24.7300   17.3910  102.8400 C.3   143  LEU143      0.0001
     84  N         26.7320   22.4830  102.1130 N.3   155  LEU155     -0.1245
     85  CA        26.9280   22.9870  103.4780 C.3   155  LEU155      0.1561
     86  C         27.4480   24.4200  103.5360 C.2   155  LEU155      0.2260
     87  O         27.2480   25.1010  104.5240 O.2   155  LEU155     -0.2867
     88  CB        27.8690   22.0780  104.2760 C.3   155  LEU155      0.0270
     89  CG        27.3510   20.6810  104.6350 C.3   155  LEU155      0.0019
     90  CD1       28.3930   19.9490  105.4450 C.3   155  LEU155      0.0001
     91  CD2       26.0520   20.7820  105.4260 C.3   155  LEU155      0.0001
     92  N         23.0970   18.8100  114.9240 N.3   194  TYR194     -0.1241
     93  CA        21.8080   19.0260  114.3040 C.3   194  TYR194      0.1605
     94  C         21.6830   20.1950  113.3520 C.2   194  TYR194      0.2264
     95  O         21.2610   20.0110  112.2280 O.2   194  TYR194     -0.2867
     96  CB        20.7130   19.1120  115.3550 C.3   194  TYR194      0.0534
     97  CG        19.3490   18.9120  114.7500 C.ar  194  TYR194     -0.0201
     98  CD1       19.0790   17.7980  113.9610 C.ar  194  TYR194     -0.0009
     99  CD2       18.3320   19.8320  114.9590 C.ar  194  TYR194     -0.0009
    100  CE1       17.8300   17.6070  113.3960 C.ar  194  TYR194      0.0417
    101  CE2       17.0800   19.6520  114.3970 C.ar  194  TYR194      0.0417
    102  CZ        16.8330   18.5390  113.6190 C.ar  194  TYR194      0.1957
    103  OH        15.5840   18.3710  113.0730 O.3   194  TYR194     -0.2866
    104  N         23.3010   19.7480  110.0060 N.3   197  LEU197     -0.1231
    105  CA        22.4870   18.8850  109.1550 C.3   197  LEU197      0.1693
    106  C         21.2540   19.6120  108.6230 C.2   197  LEU197      0.2591
    107  O         20.8630   19.4230  107.4760 O.2   197  LEU197     -0.2718
    108  CB        22.0480   17.6470  109.9260 C.3   197  LEU197      0.0284
    109  CG        23.1870   16.8090  110.5020 C.3   197  LEU197      0.0019
    110  CD1       22.6140   15.5470  111.1010 C.3   197  LEU197      0.0001
    111  CD2       24.1860   16.4620  109.4150 C.3   197  LEU197      0.0001
    112  N         20.6320   20.4330  109.4630 N.am  198  GLU198     -0.1979
    113  CA        19.4680   21.2100  109.0470 C.3   198  GLU198      0.1602
    114  C         19.8450   22.1910  107.9340 C.2   198  GLU198      0.2287
    115  O         19.0600   22.4390  107.0200 O.2   198  GLU198     -0.2864
    116  CB        18.9010   22.0170  110.2190 C.3   198  GLU198      0.0415
    117  CG        18.2740   21.2060  111.3450 C.3   198  GLU198      0.1163
    118  CD        17.7620   22.1060  112.4490 C.2   198  GLU198      0.3649
    119  OE1       16.5420   22.3420  112.5320 O.co2 198  GLU198     -0.2457
    120  OE2       18.5940   22.5980  113.2300 O.co2 198  GLU198     -0.2457
    121  N         22.1010   21.8370  105.6490 N.3   200  GLY200     -0.1210
    122  CA        22.1920   21.0730  104.4230 C.3   200  GLY200      0.1956
    123  C         20.8320   20.7040  103.8550 C.2   200  GLY200      0.2611
    124  O         20.6560   20.6900  102.6360 O.2   200  GLY200     -0.2717
    125  N         19.8660   20.4070  104.7240 N.am  201  ALA201     -0.1979
    126  CA        18.5300   20.0390  104.2700 C.3   201  ALA201      0.1597
    127  C         17.8620   21.2060  103.5650 C.2   201  ALA201      0.2287
    128  O         17.2210   21.0350  102.5460 O.2   201  ALA201     -0.2864
    129  CB        17.6770   19.5820  105.4360 C.3   201  ALA201      0.0319
    130  N         19.4660   21.9650  100.3200 N.3   204  ARG204     -0.1245
    131  CA        19.0660   20.8600   99.4780 C.3   204  ARG204      0.1563
    132  C         17.7170   21.1630   98.8440 C.2   204  ARG204      0.2260
    133  O         17.4820   20.8740   97.6620 O.2   204  ARG204     -0.2867
    134  CB        18.9450   19.6280  100.3430 C.3   204  ARG204      0.0307
    135  CG        19.3400   18.3670   99.6690 C.3   204  ARG204      0.0489
    136  CD        19.4500   17.2930  100.7030 C.3   204  ARG204      0.2205
    137  NE        20.7780   16.7080  100.7180 N.pl3 204  ARG204     -0.0865
    138  CZ        21.1280   15.7250  101.5340 C.cat 204  ARG204      0.5346
    139  NH1       20.2340   15.2490  102.3890 N.pl3 204  ARG204      0.1354
    140  NH2       22.3480   15.2060  101.4830 N.pl3 204  ARG204      0.1354
    141  N         28.4970   12.4460  102.0620 N.3   222  PHE222     -0.1241
    142  CA        28.6150   13.1350  103.3390 C.3   222  PHE222      0.1605
    143  C         29.8240   12.4930  104.0090 C.2   222  PHE222      0.2264
    144  O         29.8010   11.3010  104.3190 O.2   222  PHE222     -0.2867
    145  CB        27.3550   12.9120  104.1850 C.3   222  PHE222      0.0534
    146  CG        27.3930   13.5980  105.5170 C.ar  222  PHE222     -0.0203
    147  CD1       28.3230   13.2280  106.4800 C.ar  222  PHE222     -0.0042
    148  CD2       26.5410   14.6520  105.7880 C.ar  222  PHE222     -0.0042
    149  CE1       28.4100   13.9050  107.6940 C.ar  222  PHE222     -0.0003
    150  CE2       26.6150   15.3450  107.0040 C.ar  222  PHE222     -0.0003
    151  CZ        27.5560   14.9700  107.9610 C.ar  222  PHE222     -0.0000
@<TRIPOS>BOND
     1   133   132    2
     2   132   131    1
     3   131   130    1
     4   131   134    1
     5   135   134    1
     6   135   136    1
     7    79    78    2
     8    78    77    1
     9   136   137    1
    10   137   138    2
    11   140   138    1
    12   138   139    1
    13    82    81    1
    14    77    80    1
    15    77    76    1
    16    81    80    1
    17    81    83    1
    18   141   142    1
    19    84    85    1
    20   128   127    2
    21   124   123    2
    22   142   143    1
    23   142   145    1
    24    85    86    1
    25    85    88    1
    26    86    87    2
    27   127   126    1
    28     9     7   ar
    29   123   122    1
    30   123   125   am
    31   143   144    2
    32     8     7   ar
    33   145   146    1
    34     7     6    1
    35   126   125    1
    36   126   129    1
    37    88    89    1
    38   122   121    1
    39    89    91    1
    40    89    90    1
    41     6     5    1
    42   146   148   ar
    43   146   147   ar
    44   148   150   ar
    45    21    20   ar
    46    68    66    1
    47     5     2    1
    48     1     2    1
    49   147   149   ar
    50   150   151   ar
    51   115   114    2
    52     2     3    1
    53    20    19    1
    54    20    22   ar
    55    66    65    1
    56   107   106    2
    57   149   151   ar
    58    19    18    1
    59    10     3   am
    60    10    11    1
    61    13    12    2
    62   114   113    1
    63     3     4    2
    64   106   105    1
    65   106   112   am
    66    65    67    1
    67    65    62    1
    68    12    11    1
    69    12    14   am
    70   113   112    1
    71   113   116    1
    72    18    15    1
    73   105   108    1
    74   105   104    1
    75   111   109    1
    76    61    62    1
    77    14    15    1
    78    62    63    1
    79    15    16    1
    80   108   109    1
    81   116   117    1
    82   109   110    1
    83    75    69    1
    84    75    74    1
    85    63    69   am
    86    63    64    2
    87    16    23   am
    88    16    17    2
    89   117   118    1
    90    23    24    1
    91    69    70    1
    92    26    25    2
    93    74    73    1
    94    95    94    2
    95    58    59    2
    96    58    57    1
    97    28    27    1
    98    28    29    1
    99   118   119   ar
   100   118   120   ar
   101    24    27    1
   102    24    25    1
   103    70    73    1
   104    70    71    1
   105   103   102    1
   106    57    56    1
   107    57    60    1
   108    29    30    1
   109    94    93    1
   110   100   102   ar
   111   100    98   ar
   112   102   101   ar
   113    98    97   ar
   114    71    72    2
   115    93    92    1
   116    93    96    1
   117   101    99   ar
   118    30    31    2
   119    97    99   ar
   120    97    96    1
   121    32    31    1
   122    54    53   ar
   123    31    33    1
   124    55    53   ar
   125    53    52    1
   126    44    46   ar
   127    44    41   ar
   128    46    47   ar
   129    52    49    1
   130    51    50    2
   131    38    39    1
   132    38    35    1
   133    50    49    1
   134    41    39   ar
   135    41    43   ar
   136    37    36    2
   137    47    45   ar
   138    39    40   ar
   139    35    36    1
   140    35    34    1
   141    49    48    1
   142    43    45   ar
   143    43    42   ar
   144    40    42   ar
