@<TRIPOS>MOLECULE
tmp/2flbB00.pdb
 159 158 0 0 0
SMALL
GASTEIGER

@<TRIPOS>ATOM
      1  N          0.9570    1.4370   51.3090 N.3    25  LEU25      -0.1231
      2  CA         2.0780    1.4650   52.2390 C.3    25  LEU25       0.1693
      3  C          3.3640    1.7140   51.4490 C.2    25  LEU25       0.2592
      4  O          4.0730    2.6940   51.7020 O.2    25  LEU25      -0.2718
      5  CB         2.2500    0.1390   52.9730 C.3    25  LEU25       0.0284
      6  CG         3.3800    0.0600   53.9970 C.3    25  LEU25       0.0019
      7  CD1        3.0270    0.9830   55.1230 C.3    25  LEU25       0.0001
      8  CD2        3.5890   -1.3440   54.5380 C.3    25  LEU25       0.0001
      9  N          3.6720    0.9010   50.4380 N.am   26  CYS26      -0.1970
     10  CA         4.9410    0.9590   49.7110 C.3    26  CYS26       0.1712
     11  C          4.8130    0.1090   48.4720 C.2    26  CYS26       0.2296
     12  O          3.7690   -0.5340   48.3000 O.2    26  CYS26      -0.2864
     13  CB         6.0660    0.3980   50.5800 C.3    26  CYS26       0.0983
     14  SG         6.7280    1.5030   51.8600 S.3    26  CYS26      -0.0798
     15  N         12.1930   -0.1350   55.8020 N.3    41  HIS41      -0.1226
     16  CA        11.6970    1.0410   56.5220 C.3    41  HIS41       0.1752
     17  C         10.1940    1.1710   56.3590 C.2    41  HIS41       0.2596
     18  O          9.5930    1.8010   57.2140 O.2    41  HIS41      -0.2718
     19  CB        12.3400    2.4030   56.0660 C.3    41  HIS41       0.0759
     20  CG        11.9660    2.9770   54.7090 C.ar   41  HIS41       0.0818
     21  ND1       12.6920    2.8580   53.6230 N.ar   41  HIS41      -0.2268
     22  CD2       10.8210    3.6520   54.3580 C.ar   41  HIS41       0.1154
     23  CE1       12.0650    3.3930   52.6110 C.ar   41  HIS41       0.1986
     24  NE2       10.9440    3.8680   53.0700 N.ar   41  HIS41      -0.2212
     25  N          9.5950    0.6260   55.2870 N.am   42  CYS42      -0.1970
     26  CA         8.1490    0.5580   55.1400 C.3    42  CYS42       0.1712
     27  C          7.4440   -0.0560   56.3290 C.2    42  CYS42       0.2296
     28  O          6.2510    0.1510   56.5020 O.2    42  CYS42      -0.2864
     29  CB         7.7710   -0.2840   53.9760 C.3    42  CYS42       0.0983
     30  SG         8.3700    0.4740   52.4780 S.3    42  CYS42      -0.0798
     31  N          8.3470    0.2330   59.6310 N.3    44  ASP44      -0.1225
     32  CA         8.6860    0.8440   60.9000 C.3    44  ASP44       0.1805
     33  C          7.4800    1.1450   61.7620 C.2    44  ASP44       0.2597
     34  O          7.5400    0.9520   62.9680 O.2    44  ASP44      -0.2718
     35  CB         9.4650    2.1390   60.6730 C.3    44  ASP44       0.1424
     36  CG        10.9670    1.9770   60.4420 C.2    44  ASP44       0.3668
     37  OD1       11.5430    0.9530   60.8050 O.co2  44  ASP44      -0.2456
     38  OD2       11.5730    2.9050   59.9120 O.co2  44  ASP44      -0.2456
     39  N          6.3850    1.5850   61.1520 N.am   45  LYS45      -0.1979
     40  CA         5.1580    1.9460   61.8410 C.3    45  LYS45       0.1596
     41  C          4.0710    0.8820   61.6320 C.2    45  LYS45       0.2287
     42  O          2.8880    1.2250   61.7320 O.2    45  LYS45      -0.2864
     43  CB         4.6670    3.2990   61.3020 C.3    45  LYS45       0.0298
     44  CG         5.7100    4.3800   61.0240 C.3    45  LYS45       0.0038
     45  CD         6.0790    5.1820   62.2550 C.3    45  LYS45       0.0206
     46  CE         4.9730    6.1820   62.6230 C.3    45  LYS45       0.1093
     47  NZ         4.8170    7.2300   61.6220 N.3    45  LYS45      -0.1314
     48  N         13.1040   11.5700   39.5090 N.3   186  ASP186     -0.1225
     49  CA        13.5460   10.8390   40.6870 C.3   186  ASP186      0.1805
     50  C         12.3620    9.9650   41.1140 C.2   186  ASP186      0.2598
     51  O         11.2720   10.0760   40.5300 O.2   186  ASP186     -0.2718
     52  CB        13.8720   11.7960   41.8200 C.3   186  ASP186      0.1424
     53  CG        14.5150   11.2960   43.0950 C.2   186  ASP186      0.3668
     54  OD1       15.0600   10.1880   43.1690 O.co2 186  ASP186     -0.2456
     55  OD2       14.4480   12.0000   44.0870 O.co2 186  ASP186     -0.2456
     56  N         12.5350    8.9980   42.0250 N.am  187  SER187     -0.1938
     57  CA        11.3860    8.3590   42.6350 C.3   187  SER187      0.2055
     58  C         10.9260    9.3050   43.7520 C.2   187  SER187      0.2643
     59  O         11.4310   10.4300   43.8240 O.2   187  SER187     -0.2714
     60  CB        11.7550    6.9470   43.1830 C.3   187  SER187      0.2130
     61  OG        13.0710    6.6950   43.6380 O.3   187  SER187     -0.2179
     62  N          9.9780    8.9760   44.6310 N.am  188  CYS188     -0.1953
     63  CA         9.4680    9.9000   45.6340 C.3   188  CYS188      0.1843
     64  C          8.7130    9.0800   46.6290 C.2   188  CYS188      0.2625
     65  O          8.6670    7.8590   46.4510 O.2   188  CYS188     -0.2714
     66  CB         8.5260   10.9530   44.9760 C.3   188  CYS188      0.0997
     67  SG         8.2780   12.3780   46.0750 S.3   188  CYS188     -0.0797
     68  N          8.1930    9.7270   47.6640 N.am  189  LYS189     -0.1963
     69  CA         7.3530    9.1560   48.7000 C.3   189  LYS189      0.1728
     70  C          6.2010    8.4060   48.0680 C.2   189  LYS189      0.2616
     71  O          5.5860    8.8850   47.1050 O.2   189  LYS189     -0.2715
     72  CB         6.7880   10.2280   49.5790 C.3   189  LYS189      0.0311
     73  CG         6.2660    9.6250   50.8270 C.3   189  LYS189      0.0038
     74  CD         5.9200   10.7190   51.7990 C.3   189  LYS189      0.0206
     75  CE         5.4700    9.9500   53.0280 C.3   189  LYS189      0.1093
     76  NZ         4.9800   10.8030   54.0930 N.3   189  LYS189     -0.1314
     77  N          6.0030    7.1900   48.5910 N.am  190  GLY190     -0.1955
     78  CA         5.0720    6.2150   48.0280 C.3   190  GLY190      0.1869
     79  C          5.7520    5.1500   47.1600 C.2   190  GLY190      0.2309
     80  O          5.1730    4.1050   46.8230 O.2   190  GLY190     -0.2863
     81  N          8.9120    3.7760   47.9320 N.3   192  SER192     -0.1217
     82  CA         9.8040    2.9520   48.6910 C.3   192  SER192      0.1889
     83  C          9.4580    1.4720   48.5360 C.2   192  SER192      0.2288
     84  O          8.2740    1.1590   48.3290 O.2   192  SER192     -0.2866
     85  CB         9.6990    3.3310   50.1120 C.3   192  SER192      0.2089
     86  OG        10.2980    4.6050   50.3650 O.3   192  SER192     -0.2183
     87  N         13.9800    0.9070   45.7710 N.3   210  VAL210     -0.1231
     88  CA        13.6850    2.3270   46.0450 C.3   210  VAL210      0.1692
     89  C         13.7940    2.5080   47.5310 C.2   210  VAL210      0.2593
     90  O         13.1310    1.8150   48.3030 O.2   210  VAL210     -0.2718
     91  CB        12.2500    2.7390   45.6070 C.3   210  VAL210      0.0266
     92  CG1       12.0260    4.2010   45.8940 C.3   210  VAL210      0.0020
     93  CG2       12.0740    2.5310   44.1160 C.3   210  VAL210      0.0020
     94  N         14.5830    3.4650   47.9750 N.am  211  SER211     -0.1938
     95  CA        14.8380    3.5680   49.3970 C.3   211  SER211      0.2055
     96  C         14.7000    4.9600   50.0110 C.2   211  SER211      0.2643
     97  O         13.9920    5.1290   51.0040 O.2   211  SER211     -0.2714
     98  CB        16.2810    2.9890   49.6370 C.3   211  SER211      0.2130
     99  OG        16.6230    2.9820   51.0440 O.3   211  SER211     -0.2179
    100  N         15.4230    5.9590   49.5080 N.am  212  TRP212     -0.1959
    101  CA        15.4490    7.2830   50.1080 C.3   212  TRP212      0.1771
    102  C         16.1070    8.2790   49.1570 C.2   212  TRP212      0.2620
    103  O         16.6590    7.9660   48.0830 O.2   212  TRP212     -0.2715
    104  CB        16.2140    7.2820   51.4710 C.3   212  TRP212      0.0590
    105  CG        17.7520    7.1040   51.4960 C.ar  212  TRP212      0.0006
    106  CD1       18.3090    5.8470   51.4700 C.ar  212  TRP212      0.0946
    107  CD2       18.7290    8.1000   51.5710 C.ar  212  TRP212      0.0152
    108  NE1       19.6070    6.0300   51.5270 N.ar  212  TRP212     -0.2442
    109  CE2       19.9130    7.3390   51.5890 C.ar  212  TRP212      0.0810
    110  CE3       18.8170    9.4980   51.6130 C.ar  212  TRP212      0.0012
    111  CZ2       21.1730    7.9490   51.6480 C.ar  212  TRP212      0.0191
    112  CZ3       20.0780   10.1090   51.6660 C.ar  212  TRP212      0.0001
    113  CH2       21.2430    9.3380   51.6840 C.ar  212  TRP212      0.0015
    114  N         15.9150    9.5450   49.5270 N.am  213  GLY213     -0.1940
    115  CA        16.4440   10.6730   48.7930 C.3   213  GLY213      0.2014
    116  C         16.2320   11.9410   49.6260 C.2   213  GLY213      0.2639
    117  O         15.5300   11.9410   50.6520 O.2   213  GLY213     -0.2714
    118  N         16.8650   13.0240   49.1850 N.am  214  GLN214     -0.1963
    119  CA        16.7340   14.3440   49.8210 C.3   214  GLN214      0.1733
    120  C         15.5360   14.8680   49.0540 C.2   214  GLN214      0.2617
    121  O         15.7230   15.0660   47.8500 O.2   214  GLN214     -0.2715
    122  CB        17.9500   15.2150   49.5170 C.3   214  GLN214      0.0408
    123  CG        18.5880   15.8690   50.7290 C.3   214  GLN214      0.0908
    124  CD        17.6810   16.9130   51.2980 C.2   214  GLN214      0.2608
    125  OE1       17.7530   18.0910   50.9770 O.2   214  GLN214     -0.2717
    126  NE2       16.7820   16.5040   52.1560 N.am  214  GLN214     -0.0878
    127  N         14.3350   14.9820   49.6440 N.am  215  GLY215     -0.1940
    128  CA        13.1530   15.4030   48.8860 C.3   215  GLY215      0.2014
    129  C         12.8870   14.4390   47.7590 C.2   215  GLY215      0.2639
    130  O         13.0480   13.2320   47.9500 O.2   215  GLY215     -0.2714
    131  N         12.5200   14.8960   46.5880 N.am  216  CYS216     -0.1967
    132  CA        12.3360   14.0340   45.4310 C.3   216  CYS216      0.1712
    133  C         12.6790   15.0400   44.3730 C.2   216  CYS216      0.2296
    134  O         12.1310   16.1340   44.3990 O.2   216  CYS216     -0.2864
    135  CB        10.8820   13.5740   45.1560 C.3   216  CYS216      0.0983
    136  SG        10.1910   12.8890   46.6610 S.3   216  CYS216     -0.0798
    137  N         18.5930    9.9450   43.6200 N.3   223  GLY223     -0.1210
    138  CA        17.8720    9.0100   44.4780 C.3   223  GLY223      0.1956
    139  C         18.8330    7.9260   44.9460 C.2   223  GLY223      0.2612
    140  O         19.7040    7.5440   44.1570 O.2   223  GLY223     -0.2717
    141  N         18.6540    7.4730   46.1900 N.am  224  VAL224     -0.1965
    142  CA        19.4300    6.3900   46.7900 C.3   224  VAL224      0.1727
    143  C         18.6270    5.0650   46.9020 C.2   224  VAL224      0.2616
    144  O         17.4740    5.0430   47.3870 O.2   224  VAL224     -0.2715
    145  CB        19.8870    6.8520   48.1660 C.3   224  VAL224      0.0290
    146  CG1       20.9050    5.8440   48.7070 C.3   224  VAL224      0.0023
    147  CG2       20.4760    8.2800   48.0620 C.3   224  VAL224      0.0023
    148  N         19.2510    3.9570   46.4580 N.am  225  TYR225     -0.1974
    149  CA        18.6480    2.6230   46.3080 C.3   225  TYR225      0.1639
    150  C         19.3990    1.5450   47.0540 C.2   225  TYR225      0.2290
    151  O         20.6330    1.6180   47.0890 O.2   225  TYR225     -0.2864
    152  CB        18.6110    2.2280   44.8390 C.3   225  TYR225      0.0560
    153  CG        17.7860    3.1900   44.0190 C.ar  225  TYR225     -0.0198
    154  CD1       18.3490    4.3820   43.5420 C.ar  225  TYR225     -0.0009
    155  CD2       16.4330    2.9330   43.8070 C.ar  225  TYR225     -0.0009
    156  CE1       17.5720    5.3180   42.8650 C.ar  225  TYR225      0.0417
    157  CE2       15.6460    3.8730   43.1360 C.ar  225  TYR225      0.0417
    158  CZ        16.2160    5.0500   42.6690 C.ar  225  TYR225      0.1957
    159  OH        15.4520    5.9500   41.9720 O.3   225  TYR225     -0.2866
@<TRIPOS>BOND
     1    48    49    1
     2    51    50    2
     3    49    50    1
     4    49    52    1
     5    50    56   am
     6    52    53    1
     7   159   158    1
     8    56    57    1
     9    57    60    1
    10    57    58    1
    11   158   156   ar
    12   158   157   ar
    13   156   154   ar
    14    53    54   ar
    15    53    55   ar
    16   157   155   ar
    17    60    61    1
    18   154   153   ar
    19   137   138    1
    20    58    59    2
    21    58    62   am
    22   155   153   ar
    23   153   152    1
    24    93    91    1
    25   140   139    2
    26   133   134    2
    27   133   132    1
    28   138   139    1
    29    62    63    1
    30   152   149    1
    31   139   141   am
    32    66    63    1
    33    66    67    1
    34   135   132    1
    35   135   136    1
    36   132   131    1
    37    91    92    1
    38    91    88    1
    39    63    64    1
    40    87    88    1
    41    88    89    1
    42    67   136    1
    43   141   142    1
    44   149   148    1
    45   149   150    1
    46    65    64    2
    47   148   143   am
    48   131   129   am
    49    64    68   am
    50   142   143    1
    51   142   145    1
    52    80    79    2
    53   143   144    2
    54   150   151    2
    55    71    70    2
    56    79    78    1
    57    89    94   am
    58    89    90    2
    59    68    69    1
    60   129   130    2
    61   129   128    1
    62   121   120    2
    63    81    82    1
    64    94    95    1
    65    78    77    1
    66   147   145    1
    67    70    77   am
    68    70    69    1
    69   103   102    2
    70   145   146    1
    71    12    11    2
    72    84    83    2
    73    11    10    1
    74    83    82    1
    75    82    85    1
    76    69    72    1
    77   115   114    1
    78   115   116    1
    79   128   127    1
    80   120   127   am
    81   120   119    1
    82   102   114   am
    83   102   101    1
    84   118   116   am
    85   118   119    1
    86    95    98    1
    87    95    96    1
    88   100    96   am
    89   100   101    1
    90   122   119    1
    91   122   123    1
    92    72    73    1
    93   116   117    2
    94    98    99    1
    95    10     9    1
    96    10    13    1
    97    96    97    2
    98   101   104    1
    99    85    86    1
   100     9     3   am
   101    13    14    1
   102   123   124    1
   103    73    74    1
   104   125   124    2
   105   124   126   am
   106     1     2    1
   107     3     4    2
   108     3     2    1
   109   106   105   ar
   110   106   108   ar
   111   104   105    1
   112   105   107   ar
   113   108   109   ar
   114   107   109   ar
   115   107   110   ar
   116   109   111   ar
   117   110   112   ar
   118   111   113   ar
   119   112   113   ar
   120    74    75    1
   121    14    30    1
   122     2     5    1
   123    30    29    1
   124    23    24   ar
   125    23    21   ar
   126     5     6    1
   127    75    76    1
   128    24    22   ar
   129    21    20   ar
   130    29    26    1
   131     6     8    1
   132     6     7    1
   133    22    20   ar
   134    20    19    1
   135    26    25    1
   136    26    27    1
   137    25    17   am
   138    15    16    1
   139    19    16    1
   140    27    28    2
   141    17    16    1
   142    17    18    2
   143    31    32    1
   144    38    36   ar
   145    36    35    1
   146    36    37   ar
   147    35    32    1
   148    32    33    1
   149    44    43    1
   150    44    45    1
   151    39    33   am
   152    39    40    1
   153    43    40    1
   154    47    46    1
   155    41    42    2
   156    41    40    1
   157    33    34    2
   158    45    46    1
