@<TRIPOS>MOLECULE
tmp/2fleB00.pdb
 129 120 0 0 0
SMALL
GASTEIGER

@<TRIPOS>ATOM
      1  N         25.0280  -25.7610    7.8030 N.3     8  ARG8       -0.1245
      2  CA        24.8720  -26.4240    9.0980 C.3     8  ARG8        0.1563
      3  C         24.6610  -25.3490   10.1580 C.2     8  ARG8        0.2260
      4  O         25.3920  -24.3540   10.1920 O.2     8  ARG8       -0.2867
      5  CB        26.1150  -27.2600    9.4220 C.3     8  ARG8        0.0307
      6  CG        26.2330  -28.5110    8.5690 C.3     8  ARG8        0.0489
      7  CD        27.5980  -29.1870    8.6790 C.3     8  ARG8        0.2205
      8  NE        27.7000  -30.2880    7.7220 N.pl3   8  ARG8       -0.0865
      9  CZ        28.8180  -30.9550    7.4450 C.cat   8  ARG8        0.5346
     10  NH1       29.9580  -30.6470    8.0520 N.pl3   8  ARG8        0.1354
     11  NH2       28.7980  -31.9320    6.5460 N.pl3   8  ARG8        0.1354
     12  N         25.5250  -24.0900   13.0350 N.3    10  LEU10      -0.1245
     13  CA        26.5780  -24.0970   14.0430 C.3    10  LEU10       0.1561
     14  C         26.5710  -22.8350   14.8950 C.2    10  LEU10       0.2260
     15  O         26.3060  -21.7370   14.3970 O.2    10  LEU10      -0.2867
     16  CB        27.9430  -24.2420   13.3660 C.3    10  LEU10       0.0270
     17  CG        28.1580  -25.5170   12.5520 C.3    10  LEU10       0.0019
     18  CD1       29.5340  -25.4790   11.8930 C.3    10  LEU10       0.0001
     19  CD2       28.0260  -26.7360   13.4610 C.3    10  LEU10       0.0001
     20  N         26.5880  -28.0670   16.7610 N.3    23  LEU23      -0.1245
     21  CA        25.4390  -28.1230   15.8760 C.3    23  LEU23       0.1561
     22  C         24.0980  -28.0440   16.6270 C.2    23  LEU23       0.2260
     23  O         23.8590  -28.8320   17.5410 O.2    23  LEU23      -0.2867
     24  CB        25.5230  -29.4440   15.1090 C.3    23  LEU23       0.0270
     25  CG        24.7300  -29.7210   13.8390 C.3    23  LEU23       0.0019
     26  CD1       25.3190  -28.9340   12.6770 C.3    23  LEU23       0.0001
     27  CD2       24.7980  -31.2230   13.5470 C.3    23  LEU23       0.0001
     28  N         20.8960  -29.2250   16.9350 N.3    25  ASP25      -0.1239
     29  CA        20.2970  -30.4310   16.3640 C.3    25  ASP25       0.1674
     30  C         18.9130  -30.8270   16.9080 C.2    25  ASP25       0.2266
     31  O         18.8110  -31.5050   17.9290 O.2    25  ASP25      -0.2867
     32  CB        21.3090  -31.5590   16.5920 C.3    25  ASP25       0.1410
     33  CG        20.9320  -32.8440   15.9110 C.2    25  ASP25       0.3668
     34  OD1       19.7540  -33.0150   15.5440 O.co2  25  ASP25      -0.2456
     35  OD2       21.8340  -33.6920   15.7650 O.co2  25  ASP25      -0.2456
     36  N         16.9270  -33.0130   15.9270 N.3    27  GLY27      -0.1210
     37  CA        16.6660  -34.4380   15.8850 C.3    27  GLY27       0.1956
     38  C         17.2630  -35.2340   17.0300 C.2    27  GLY27       0.2612
     39  O         16.9360  -36.4070   17.1930 O.2    27  GLY27      -0.2717
     40  N         18.1210  -34.6080   17.8340 N.am   28  ALA28      -0.1965
     41  CA        18.7780  -35.3020   18.9390 C.3    28  ALA28       0.1728
     42  C         18.1240  -35.0850   20.3010 C.2    28  ALA28       0.2616
     43  O         17.8950  -33.9480   20.7090 O.2    28  ALA28      -0.2715
     44  CB        20.2490  -34.8820   19.0000 C.3    28  ALA28       0.0334
     45  N         17.8190  -36.1760   21.0020 N.am   29  ASP29      -0.1957
     46  CA        17.2170  -36.0670   22.3280 C.3    29  ASP29       0.1840
     47  C         18.2510  -35.4900   23.2800 C.2    29  ASP29       0.2622
     48  O         17.9270  -34.6730   24.1420 O.2    29  ASP29      -0.2715
     49  CB        16.8090  -37.4360   22.8900 C.3    29  ASP29       0.1450
     50  CG        15.5730  -38.0250   22.2210 C.2    29  ASP29       0.3671
     51  OD1       14.9690  -37.3750   21.3470 O.co2  29  ASP29      -0.2456
     52  OD2       15.2100  -39.1640   22.5870 O.co2  29  ASP29      -0.2456
     53  N         19.4970  -35.9320   23.1140 N.am   30  ASP30      -0.1971
     54  CA        20.5950  -35.5220   23.9850 C.3    30  ASP30       0.1709
     55  C         21.6550  -34.6330   23.3470 C.2    30  ASP30       0.2293
     56  O         21.7100  -34.4690   22.1320 O.2    30  ASP30      -0.2864
     57  CB        21.3040  -36.7580   24.5420 C.3    30  ASP30       0.1436
     58  CG        20.3440  -37.7890   25.0850 C.2    30  ASP30       0.3671
     59  OD1       19.4720  -37.4160   25.8920 O.co2  30  ASP30      -0.2456
     60  OD2       20.4690  -38.9730   24.7120 O.co2  30  ASP30      -0.2456
     61  N         25.6700  -34.1890   22.9050 N.3    32  VAL32      -0.1245
     62  CA        26.9030  -34.9700   22.9540 C.3    32  VAL32       0.1561
     63  C         28.0670  -34.1890   22.3500 C.2    32  VAL32       0.2260
     64  O         27.9760  -33.6800   21.2310 O.2    32  VAL32      -0.2867
     65  CB        26.7590  -36.3210   22.1960 C.3    32  VAL32       0.0252
     66  CG1       26.4710  -36.0800   20.7360 C.3    32  VAL32       0.0019
     67  CG2       28.0330  -37.1360   22.3440 C.3    32  VAL32       0.0019
     68  N         24.6210  -44.4440   23.9880 N.3    47  ILE47      -0.1231
     69  CA        23.6140  -43.7590   23.1860 C.3    47  ILE47       0.1692
     70  C         23.6430  -44.2810   21.7620 C.2    47  ILE47       0.2593
     71  O         24.6780  -44.7340   21.2740 O.2    47  ILE47      -0.2718
     72  CB        23.8340  -42.2290   23.1540 C.3    47  ILE47       0.0266
     73  CG1       25.2300  -41.9140   22.6190 C.3    47  ILE47       0.0019
     74  CG2       23.6360  -41.6480   24.5380 C.3    47  ILE47       0.0020
     75  CD1       25.4970  -40.4350   22.4470 C.3    47  ILE47       0.0001
     76  N         22.5000  -44.2120   21.0970 N.am   48  GLY48      -0.1942
     77  CA        22.4290  -44.6940   19.7350 C.3    48  GLY48       0.2014
     78  C         22.1960  -43.6030   18.7130 C.2    48  GLY48       0.2639
     79  O         21.9810  -42.4360   19.0490 O.2    48  GLY48      -0.2714
     80  N         22.2470  -44.0030   17.4510 N.am   49  GLY49      -0.1939
     81  CA        22.0350  -43.0860   16.3520 C.3    49  GLY49       0.2014
     82  C         22.2130  -43.8610   15.0650 C.2    49  GLY49       0.2638
     83  O         22.1380  -45.0900   15.0600 O.2    49  GLY49      -0.2714
     84  N         22.4330  -43.1510   13.9690 N.am   50  ILE50      -0.1977
     85  CA        22.6500  -43.8010   12.6930 C.3    50  ILE50       0.1596
     86  C         23.9880  -44.5200   12.8060 C.2    50  ILE50       0.2287
     87  O         24.9620  -43.9540   13.3020 O.2    50  ILE50      -0.2864
     88  CB        22.7270  -42.7640   11.5490 C.3    50  ILE50       0.0276
     89  CG1       21.3170  -42.3550   11.1210 C.3    50  ILE50       0.0022
     90  CG2       23.5140  -43.3250   10.3780 C.3    50  ILE50       0.0022
     91  CD1       20.4860  -43.4940   10.5710 C.3    50  ILE50       0.0001
     92  N         31.9160  -38.9380   19.4680 N.3    80  THR80      -0.1204
     93  CA        30.9730  -38.4210   18.4850 C.3    80  THR80       0.1979
     94  C         31.7770  -37.6910   17.4170 C.2    80  THR80       0.2460
     95  O         32.7750  -37.0530   17.7250 O.2    80  THR80      -0.2732
     96  CB        29.9850  -37.4150   19.1000 C.3    80  THR80       0.1783
     97  OG1       29.1620  -36.8650   18.0620 O.3    80  THR80      -0.2211
     98  CG2       30.7370  -36.2810   19.7820 C.3    80  THR80       0.0376
     99  N         31.3550  -37.7820   16.1450 N.am   81  PRO81      -0.2717
    100  CA        32.0680  -37.1070   15.0540 C.3    81  PRO81       0.1535
    101  C         31.9280  -35.5810   15.1120 C.2    81  PRO81       0.2598
    102  O         32.6890  -34.8580   14.4720 O.2    81  PRO81      -0.2715
    103  CB        31.4130  -37.6860   13.8000 C.3    81  PRO81       0.0310
    104  CG        30.9180  -39.0300   14.2540 C.3    81  PRO81       0.0237
    105  CD        30.3510  -38.7160   15.6090 C.3    81  PRO81       0.0939
    106  N         30.9530  -35.0920   15.8740 N.am   82  ALA82      -0.1978
    107  CA        30.7410  -33.6510   15.9810 C.3    82  ALA82       0.1597
    108  C         29.9890  -33.2730   17.2470 C.2    82  ALA82       0.2287
    109  O         29.2450  -34.0840   17.7990 O.2    82  ALA82      -0.2864
    110  CB        29.9780  -33.1500   14.7650 C.3    82  ALA82       0.0319
    111  N         27.1600  -31.9400   19.3030 N.3    84  ILE84      -0.1245
    112  CA        25.7180  -31.8400   19.0770 C.3    84  ILE84       0.1561
    113  C         24.9560  -31.2480   20.2620 C.2    84  ILE84       0.2260
    114  O         25.0790  -31.7340   21.3830 O.2    84  ILE84      -0.2867
    115  CB        25.1260  -33.2500   18.8080 C.3    84  ILE84       0.0252
    116  CG1       25.7220  -33.8200   17.5240 C.3    84  ILE84       0.0019
    117  CG2       23.5980  -33.1850   18.7460 C.3    84  ILE84       0.0019
    118  CD1       25.5860  -35.3110   17.4120 C.3    84  ILE84       0.0001
    119  N         17.8310  -31.4900   22.0600 N.3    87  ARG87      -0.1245
    120  CA        16.6360  -30.8620   22.6180 C.3    87  ARG87       0.1563
    121  C         16.6490  -30.6060   24.1220 C.2    87  ARG87       0.2260
    122  O         15.9950  -29.6720   24.5920 O.2    87  ARG87      -0.2867
    123  CB        15.3870  -31.6770   22.2450 C.3    87  ARG87       0.0307
    124  CG        15.0700  -31.6790   20.7430 C.3    87  ARG87       0.0489
    125  CD        13.7180  -32.3510   20.4270 C.3    87  ARG87       0.2205
    126  NE        13.6520  -33.7300   20.9120 N.pl3  87  ARG87      -0.0865
    127  CZ        13.1070  -34.0960   22.0680 C.cat  87  ARG87       0.5346
    128  NH1       12.5600  -33.1920   22.8710 N.pl3  87  ARG87       0.1354
    129  NH2       13.1320  -35.3680   22.4360 N.pl3  87  ARG87       0.1354
@<TRIPOS>BOND
     1    11     9    1
     2     9     8    2
     3     9    10    1
     4     8     7    1
     5     1     2    1
     6     6     7    1
     7     6     5    1
     8     2     5    1
     9     2     3    1
    10     3     4    2
    11    90    88    1
    12    91    89    1
    13    89    88    1
    14    88    85    1
    15    18    17    1
    16    17    16    1
    17    17    19    1
    18    26    25    1
    19    85    86    1
    20    85    84    1
    21    86    87    2
    22    12    13    1
    23    16    13    1
    24    27    25    1
    25   103   104    1
    26   103   100    1
    27    25    24    1
    28    84    82   am
    29    13    14    1
    30   104   105    1
    31    15    14    2
    32   102   101    2
    33   110   107    1
    34   100   101    1
    35   100    99    1
    36    83    82    2
    37    82    81    1
    38    24    21    1
    39   101   106   am
    40    34    33   ar
    41   105    99    1
    42    35    33   ar
    43   106   107    1
    44    21    22    1
    45    21    20    1
    46    37    36    1
    47    37    38    1
    48    33    32    1
    49   107   108    1
    50    99    94   am
    51    81    80    1
    52    29    32    1
    53    29    30    1
    54    29    28    1
    55    22    23    2
    56    30    31    2
    57    38    39    2
    58    38    40   am
    59   108   109    2
    60   118   116    1
    61    94    95    2
    62    94    93    1
    63    80    78   am
    64   116   115    1
    65    40    41    1
    66    97    96    1
    67    93    96    1
    68    93    92    1
    69    78    79    2
    70    78    77    1
    71   117   115    1
    72   115   112    1
    73    41    44    1
    74    41    42    1
    75   112   111    1
    76   112   113    1
    77    96    98    1
    78    77    76    1
    79   113   114    2
    80    42    43    2
    81    42    45   am
    82   125   124    1
    83   125   126    1
    84    66    65    1
    85   124   123    1
    86   126   127    2
    87    45    46    1
    88    76    70   am
    89    64    63    2
    90    71    70    2
    91    51    50   ar
    92    70    69    1
    93   119   120    1
    94   127   129    1
    95   127   128    1
    96    56    55    2
    97    65    67    1
    98    65    62    1
    99    50    52   ar
   100    50    49    1
   101   123   120    1
   102    46    49    1
   103    46    47    1
   104    63    62    1
   105    75    73    1
   106   120   121    1
   107    73    72    1
   108    61    62    1
   109    53    47   am
   110    53    54    1
   111    72    69    1
   112    72    74    1
   113    69    68    1
   114    47    48    2
   115    55    54    1
   116    54    57    1
   117   121   122    2
   118    57    58    1
   119    60    58   ar
   120    58    59   ar
