@<TRIPOS>MOLECULE
tmp/2flhA02.pdb
 76 71 0 0 0
SMALL
GASTEIGER

@<TRIPOS>ATOM
      1  N         32.7790   -6.9400    3.4630 N.3    23  SER23      -0.1202
      2  CA        32.4080   -7.1510    4.8230 C.3    23  SER23       0.2020
      3  C         31.1370   -6.4770    5.2180 C.2    23  SER23       0.2618
      4  O         30.4980   -6.9120    6.1830 O.2    23  SER23      -0.2717
      5  CB        33.5330   -6.7280    5.8210 C.3    23  SER23       0.2103
      6  OG        33.6540   -5.3150    5.9110 O.3    23  SER23      -0.2182
      7  N         30.7140   -5.4050    4.5330 N.am   24  LYS24      -0.1979
      8  CA        29.6410   -4.5660    5.0050 C.3    24  LYS24       0.1596
      9  C         28.7060   -4.0860    3.9120 C.2    24  LYS24       0.2287
     10  O         27.5010   -3.9350    4.1310 O.2    24  LYS24      -0.2864
     11  CB        30.2110   -3.3390    5.7380 C.3    24  LYS24       0.0298
     12  CG        31.0860   -3.6050    6.9380 C.3    24  LYS24       0.0038
     13  CD        30.4720   -4.5490    7.9290 C.3    24  LYS24       0.0206
     14  CE        30.6180   -4.1690    9.3740 C.3    24  LYS24       0.1093
     15  NZ        29.3380   -4.4870   10.1110 N.3    24  LYS24      -0.1314
     16  N         27.8590   -5.2950    0.8590 N.3    26  PHE26      -0.1227
     17  CA        27.6120   -6.2660   -0.1600 C.3    26  PHE26       0.1736
     18  C         26.1350   -6.4400   -0.5440 C.2    26  PHE26       0.2595
     19  O         25.8790   -7.1100   -1.5490 O.2    26  PHE26      -0.2718
     20  CB        28.1670   -7.6370    0.2590 C.3    26  PHE26       0.0547
     21  CG        27.6720   -8.0850    1.6090 C.ar   26  PHE26      -0.0202
     22  CD1       26.4440   -8.6590    1.8140 C.ar   26  PHE26      -0.0042
     23  CD2       28.4470   -7.8800    2.7700 C.ar   26  PHE26      -0.0042
     24  CE1       26.0100   -9.0160    3.0330 C.ar   26  PHE26      -0.0003
     25  CE2       28.0330   -8.2350    3.9930 C.ar   26  PHE26      -0.0003
     26  CZ        26.7630   -8.7890    4.1720 C.ar   26  PHE26      -0.0000
     27  N         25.1880   -5.8910    0.1990 N.am   27  ILE27      -0.1966
     28  CA        23.7750   -6.3030   -0.0070 C.3    27  ILE27       0.1727
     29  C         23.2880   -5.9310   -1.3810 C.2    27  ILE27       0.2616
     30  O         22.6250   -6.7350   -2.0520 O.2    27  ILE27      -0.2715
     31  CB        22.8410   -5.7530    1.1020 C.3    27  ILE27       0.0290
     32  CG1       23.1200   -6.5080    2.4150 C.3    27  ILE27       0.0022
     33  CG2       21.3910   -5.7820    0.6920 C.3    27  ILE27       0.0023
     34  CD1       22.4200   -6.2180    3.6560 C.3    27  ILE27       0.0001
     35  N         23.5790   -4.7050   -1.8950 N.am   28  THR28      -0.1951
     36  CA        23.1950   -4.3620   -3.2800 C.3    28  THR28       0.1897
     37  C         24.2010   -4.9080   -4.2820 C.2    28  THR28       0.2313
     38  O         23.8680   -4.9620   -5.5090 O.2    28  THR28      -0.2863
     39  CB        23.0300   -2.8730   -3.5200 C.3    28  THR28       0.1794
     40  OG1       24.3360   -2.2320   -3.4390 O.3    28  THR28      -0.2208
     41  CG2       22.1200   -2.2560   -2.5030 C.3    28  THR28       0.0378
     42  N         18.7200   -8.9040    4.8170 N.3    43  LEU43      -0.1245
     43  CA        19.1960   -8.8840    6.1750 C.3    43  LEU43       0.1561
     44  C         18.1320   -9.3800    7.0800 C.2    43  LEU43       0.2260
     45  O         16.9820   -8.8250    7.1150 O.2    43  LEU43      -0.2867
     46  CB        19.6520   -7.4390    6.5060 C.3    43  LEU43       0.0270
     47  CG        20.1510   -7.2800    7.9500 C.3    43  LEU43       0.0019
     48  CD1       21.3980   -8.0630    8.1570 C.3    43  LEU43       0.0001
     49  CD2       20.3550   -5.8050    8.2480 C.3    43  LEU43       0.0001
     50  N         23.1180   -6.4790   12.8230 N.3    47  ASP47      -0.1225
     51  CA        23.4200   -5.1710   12.2760 C.3    47  ASP47       0.1805
     52  C         24.8030   -5.1600   11.6490 C.2    47  ASP47       0.2598
     53  O         25.3790   -4.0570   11.4820 O.2    47  ASP47      -0.2718
     54  CB        23.3880   -4.0730   13.3650 C.3    47  ASP47       0.1424
     55  CG        24.2090   -4.4620   14.6070 C.2    47  ASP47       0.3668
     56  OD1       24.2780   -5.6670   14.8970 O.co2  47  ASP47      -0.2456
     57  OD2       24.7540   -3.5490   15.2460 O.co2  47  ASP47      -0.2456
     58  N         25.3040   -6.3450   11.2970 N.am   48  GLY48      -0.1957
     59  CA        26.6750   -6.3650   10.7470 C.3    48  GLY48       0.1869
     60  C         27.6020   -6.9860   11.7440 C.2    48  GLY48       0.2309
     61  O         27.2930   -7.0720   12.9490 O.2    48  GLY48      -0.2863
     62  N         25.0980  -11.7960   12.5070 N.3    52  THR52      -0.1218
     63  CA        24.2430  -11.3260   11.4500 C.3    52  THR52       0.1862
     64  C         23.7990  -12.5230   10.5860 C.2    52  THR52       0.2287
     65  O         24.6500  -13.3840   10.2500 O.2    52  THR52      -0.2866
     66  CB        24.9900  -10.3060   10.5600 C.3    52  THR52       0.1770
     67  OG1       25.3920   -9.2220   11.4190 O.3    52  THR52      -0.2211
     68  CG2       24.1050   -9.8280    9.4480 C.3    52  THR52       0.0375
     69  N         27.1100  -14.6820    9.6900 N.3    71  ILE71      -0.1245
     70  CA        28.4800  -14.2140    9.9160 C.3    71  ILE71       0.1561
     71  C         28.9680  -14.7840   11.2530 C.2    71  ILE71       0.2260
     72  O         28.4210  -14.4450   12.2950 O.2    71  ILE71      -0.2867
     73  CB        28.6000  -12.6800    9.9060 C.3    71  ILE71       0.0252
     74  CG1       28.1240  -12.0710    8.5650 C.3    71  ILE71       0.0019
     75  CG2       29.9990  -12.2460   10.2840 C.3    71  ILE71       0.0019
     76  CD1       28.2310  -10.5870    8.3840 C.3    71  ILE71       0.0001
@<TRIPOS>BOND
     1    38    37    2
     2    37    36    1
     3    39    40    1
     4    39    36    1
     5    39    41    1
     6    36    35    1
     7    30    29    2
     8    35    29   am
     9    19    18    2
    10    29    28    1
    11    18    17    1
    12    18    27   am
    13    17    20    1
    14    17    16    1
    15    28    27    1
    16    28    31    1
    17    20    21    1
    18    33    31    1
    19    31    32    1
    20    21    22   ar
    21    21    23   ar
    22    22    24   ar
    23    32    34    1
    24    23    25   ar
    25    24    26   ar
    26     1     2    1
    27     9    10    2
    28     9     8    1
    29    25    26   ar
    30     7     8    1
    31     7     3   am
    32    42    43    1
    33     2     3    1
    34     2     5    1
    35     8    11    1
    36     3     4    2
    37    11    12    1
    38     5     6    1
    39    43    46    1
    40    43    44    1
    41    46    47    1
    42    12    13    1
    43    44    45    2
    44    13    14    1
    45    47    48    1
    46    47    49    1
    47    76    74    1
    48    74    73    1
    49    14    15    1
    50    68    66    1
    51    69    70    1
    52    73    70    1
    53    73    75    1
    54    70    71    1
    55    65    64    2
    56    66    67    1
    57    66    63    1
    58    64    63    1
    59    59    58    1
    60    59    60    1
    61    71    72    2
    62    58    52   am
    63    63    62    1
    64    53    52    2
    65    52    51    1
    66    60    61    2
    67    51    50    1
    68    51    54    1
    69    54    55    1
    70    55    56   ar
    71    55    57   ar
