@<TRIPOS>MOLECULE
tmp/2flhD00.pdb
 161 150 0 0 0
SMALL
GASTEIGER

@<TRIPOS>ATOM
      1  N         50.0890   54.6770    1.6540 N.3    21  LEU21      -0.1245
      2  CA        50.5350   55.9760    2.1400 C.3    21  LEU21       0.1561
      3  C         51.2090   55.8840    3.5090 C.2    21  LEU21       0.2260
      4  O         52.2790   56.4720    3.6970 O.2    21  LEU21      -0.2867
      5  CB        49.3840   56.9880    2.1950 C.3    21  LEU21       0.0270
      6  CG        49.8150   58.4140    2.6020 C.3    21  LEU21       0.0019
      7  CD1       50.7500   58.9560    1.5230 C.3    21  LEU21       0.0001
      8  CD2       48.6270   59.3030    2.8550 C.3    21  LEU21       0.0001
      9  N         55.1920   52.5360    2.2420 N.3    25  PHE25      -0.1241
     10  CA        55.9530   53.4790    1.4440 C.3    25  PHE25       0.1605
     11  C         57.3680   53.0880    1.1470 C.2    25  PHE25       0.2264
     12  O         57.9490   53.5760    0.1500 O.2    25  PHE25      -0.2867
     13  CB        55.9800   54.8800    2.1310 C.3    25  PHE25       0.0534
     14  CG        56.2760   54.8270    3.5810 C.ar   25  PHE25      -0.0203
     15  CD1       57.5850   54.5920    4.0200 C.ar   25  PHE25      -0.0042
     16  CD2       55.2730   54.9450    4.5370 C.ar   25  PHE25      -0.0042
     17  CE1       57.8430   54.4630    5.3650 C.ar   25  PHE25      -0.0003
     18  CE2       55.5560   54.8600    5.8920 C.ar   25  PHE25      -0.0003
     19  CZ        56.8540   54.6020    6.2910 C.ar   25  PHE25      -0.0000
     20  N         57.3060   54.0240   -2.7470 N.3    29  VAL29      -0.1245
     21  CA        57.8210   55.3350   -3.1950 C.3    29  VAL29       0.1561
     22  C         58.7760   55.2190   -4.3350 C.2    29  VAL29       0.2260
     23  O         58.5960   55.9830   -5.3240 O.2    29  VAL29      -0.2867
     24  CB        58.3960   56.1230   -2.0020 C.3    29  VAL29       0.0252
     25  CG1       59.1780   57.3510   -2.4740 C.3    29  VAL29       0.0019
     26  CG2       57.2410   56.5290   -1.1030 C.3    29  VAL29       0.0019
     27  N         57.7930   57.1340   -7.8290 N.3    33  LEU33      -0.1245
     28  CA        58.6210   58.3170   -8.2160 C.3    33  LEU33       0.1561
     29  C         59.9670   57.8720   -8.7650 C.2    33  LEU33       0.2260
     30  O         61.0360   58.2760   -8.2390 O.2    33  LEU33      -0.2867
     31  CB        58.8180   59.2100   -7.0050 C.3    33  LEU33       0.0270
     32  CG        57.4740   59.6020   -6.2970 C.3    33  LEU33       0.0019
     33  CD1       57.7460   60.4140   -5.0700 C.3    33  LEU33       0.0001
     34  CD2       56.5630   60.2630   -7.3000 C.3    33  LEU33       0.0001
     35  N         63.2480   58.2520    8.1260 N.3    53  LEU53      -0.1245
     36  CA        63.4650   57.7590    6.8120 C.3    53  LEU53       0.1561
     37  C         64.5240   58.5780    6.0810 C.2    53  LEU53       0.2260
     38  O         64.5090   59.7950    6.2050 O.2    53  LEU53      -0.2867
     39  CB        62.1480   57.8660    5.9810 C.3    53  LEU53       0.0270
     40  CG        60.9110   57.2540    6.6120 C.3    53  LEU53       0.0019
     41  CD1       59.6940   57.5770    5.7990 C.3    53  LEU53       0.0001
     42  CD2       61.0960   55.7230    6.6950 C.3    53  LEU53       0.0001
     43  N         65.3970   59.3350    2.1760 N.3    55  PHE55      -0.1241
     44  CA        65.0620   59.2790    0.7540 C.3    55  PHE55       0.1605
     45  C         66.3450   59.6060   -0.0100 C.2    55  PHE55       0.2264
     46  O         66.8690   60.6850    0.0820 O.2    55  PHE55      -0.2867
     47  CB        63.9400   60.2380    0.3920 C.3    55  PHE55       0.0534
     48  CG        62.6060   59.9000    1.0420 C.ar   55  PHE55      -0.0203
     49  CD1       62.3240   60.2870    2.3430 C.ar   55  PHE55      -0.0042
     50  CD2       61.6340   59.1880    0.3700 C.ar   55  PHE55      -0.0042
     51  CE1       61.1480   59.9800    2.9560 C.ar   55  PHE55      -0.0003
     52  CE2       60.4260   58.8770    0.9920 C.ar   55  PHE55      -0.0003
     53  CZ        60.1760   59.2910    2.2920 C.ar   55  PHE55      -0.0000
     54  N         66.9550   63.4410    1.2240 N.3    66  GLN66      -0.1196
     55  CA        66.1170   64.1700    2.2050 C.3    66  GLN66       0.1782
     56  C         66.0160   63.2080    3.4020 C.2    66  GLN66       0.2306
     57  O         65.9490   61.9840    3.1690 O.2    66  GLN66      -0.2863
     58  CB        64.7590   64.5800    1.6900 C.2    66  GLN66       0.0051
     59  CG        63.9980   65.6970    2.4200 C.2    66  GLN66       0.0584
     60  CD        62.8920   66.4050    1.6790 C.2    66  GLN66       0.2840
     61  OE1       62.8800   67.6600    1.3060 O.2    66  GLN66      -0.2667
     62  NE2       61.8190   65.6940    1.4050 N.am   66  GLN66      -0.0837
     63  N         63.5060   62.4810    6.6660 N.3    68  GLU68      -0.1245
     64  CA        62.1850   62.8620    7.1990 C.3    68  GLU68       0.1567
     65  C         61.8640   62.0290    8.4330 C.2    68  GLU68       0.2260
     66  O         62.3140   60.8870    8.5580 O.2    68  GLU68      -0.2867
     67  CB        61.0750   62.7570    6.1720 C.3    68  GLU68       0.0388
     68  CG        61.2180   63.6130    4.9380 C.3    68  GLU68       0.1160
     69  CD        59.9240   63.7370    4.1170 C.2    68  GLU68       0.3649
     70  OE1       59.3060   62.7140    3.8520 O.co2  68  GLU68      -0.2457
     71  OE2       59.5430   64.8540    3.7080 O.co2  68  GLU68      -0.2457
     72  N         48.7560   61.4030    8.7660 N.3    80  ILE80      -0.1245
     73  CA        50.1750   61.1620    8.8490 C.3    80  ILE80       0.1561
     74  C         50.9300   62.4300    8.5060 C.2    80  ILE80       0.2260
     75  O         50.6430   63.0230    7.4640 O.2    80  ILE80      -0.2867
     76  CB        50.6620   59.9490    7.9990 C.3    80  ILE80       0.0252
     77  CG1       52.1330   59.6770    8.2010 C.3    80  ILE80       0.0019
     78  CG2       50.2670   60.0400    6.5550 C.3    80  ILE80       0.0019
     79  CD1       52.6460   58.3880    7.5720 C.3    80  ILE80       0.0001
     80  N         54.9300   64.2180    8.2110 N.3    82  LEU82      -0.1245
     81  CA        56.3460   63.9900    8.0240 C.3    82  LEU82       0.1561
     82  C         57.0880   65.3180    7.9860 C.2    82  LEU82       0.2260
     83  O         56.7690   66.1890    7.1820 O.2    82  LEU82      -0.2867
     84  CB        56.6760   63.2690    6.7190 C.3    82  LEU82       0.0270
     85  CG        56.0780   61.7940    6.7390 C.3    82  LEU82       0.0019
     86  CD1       54.9030   61.7810    5.8420 C.3    82  LEU82       0.0001
     87  CD2       57.2120   60.8680    6.5070 C.3    82  LEU82       0.0001
     88  N         64.4820   70.0640    0.9080 N.3    89  TYR89      -0.1241
     89  CA        64.2060   71.4870    0.8760 C.3    89  TYR89       0.1605
     90  C         64.9920   72.2670    1.9230 C.2    89  TYR89       0.2264
     91  O         65.1860   73.4850    1.7380 O.2    89  TYR89      -0.2867
     92  CB        62.7260   71.7410    1.0440 C.3    89  TYR89       0.0534
     93  CG        61.8060   71.1640    0.0130 C.ar   89  TYR89      -0.0201
     94  CD1       62.1110   71.2150   -1.3500 C.ar   89  TYR89      -0.0009
     95  CD2       60.6180   70.5400    0.3800 C.ar   89  TYR89      -0.0009
     96  CE1       61.2670   70.6710   -2.2810 C.ar   89  TYR89       0.0417
     97  CE2       59.7540   70.0050   -0.5530 C.ar   89  TYR89       0.0417
     98  CZ        60.0640   70.0610   -1.8780 C.ar   89  TYR89       0.1957
     99  OH        59.2450   69.5540   -2.8420 O.3    89  TYR89      -0.2866
    100  N         60.1340   72.5700    7.2440 N.3    97  TYR97      -0.1241
    101  CA        59.2320   72.0040    6.2730 C.3    97  TYR97       0.1605
    102  C         58.5860   70.7230    6.8500 C.2    97  TYR97       0.2264
    103  O         59.2850   69.8160    7.2630 O.2    97  TYR97      -0.2867
    104  CB        59.9250   71.7040    4.9540 C.3    97  TYR97       0.0534
    105  CG        58.9320   71.4920    3.8150 C.ar   97  TYR97      -0.0201
    106  CD1       58.3680   70.2970    3.5570 C.ar   97  TYR97      -0.0009
    107  CD2       58.5370   72.5680    3.0190 C.ar   97  TYR97      -0.0009
    108  CE1       57.4700   70.1220    2.5300 C.ar   97  TYR97       0.0417
    109  CE2       57.6480   72.4390    2.0060 C.ar   97  TYR97       0.0417
    110  CZ        57.0900   71.1850    1.7620 C.ar   97  TYR97       0.1957
    111  OH        56.1750   71.0540    0.7450 O.3    97  TYR97      -0.2866
    112  N         54.9400   68.1400    6.0450 N.3    99  THR99      -0.1218
    113  CA        53.8220   67.7820    5.2340 C.3    99  THR99       0.1862
    114  C         52.8480   66.9000    6.0690 C.2    99  THR99       0.2287
    115  O         53.3110   65.8910    6.5760 O.2    99  THR99      -0.2866
    116  CB        54.2020   66.9560    3.9880 C.3    99  THR99       0.1770
    117  OG1       55.2370   67.6180    3.2440 O.3    99  THR99      -0.2211
    118  CG2       53.0230   66.8330    3.0720 C.3    99  THR99       0.0375
    119  N         49.2240   64.7560    5.7290 N.3   101  PHE101     -0.1241
    120  CA        48.1950   64.1750    4.8840 C.3   101  PHE101      0.1605
    121  C         47.0200   63.7450    5.8190 C.2   101  PHE101      0.2264
    122  O         47.2790   63.1250    6.8560 O.2   101  PHE101     -0.2867
    123  CB        48.6750   62.9580    4.1690 C.3   101  PHE101      0.0534
    124  CG        49.8810   63.1360    3.2770 C.ar  101  PHE101     -0.0203
    125  CD1       51.1780   62.9590    3.7790 C.ar  101  PHE101     -0.0042
    126  CD2       49.7420   63.4760    1.9690 C.ar  101  PHE101     -0.0042
    127  CE1       52.3040   63.1140    3.0070 C.ar  101  PHE101     -0.0003
    128  CE2       50.8840   63.5910    1.1470 C.ar  101  PHE101     -0.0003
    129  CZ        52.1250   63.3560    1.6910 C.ar  101  PHE101     -0.0000
    130  N         56.0060   73.2700   -4.2150 N.3   134  THR134     -0.1218
    131  CA        56.2070   71.9940   -3.5070 C.3   134  THR134      0.1862
    132  C         54.8860   71.2500   -3.3610 C.2   134  THR134      0.2287
    133  O         54.9240   69.9900   -3.3610 O.2   134  THR134     -0.2866
    134  CB        56.8760   72.1550   -2.1480 C.3   134  THR134      0.1770
    135  OG1       56.0370   72.9080   -1.2710 O.3   134  THR134     -0.2211
    136  CG2       58.2180   72.9100   -2.2280 C.3   134  THR134      0.0375
    137  N         54.3310   69.0370   -6.3130 N.3   137  SER137     -0.1202
    138  CA        55.0390   67.7690   -6.2390 C.3   137  SER137      0.2020
    139  C         54.3270   66.7770   -5.3200 C.2   137  SER137      0.2619
    140  O         54.2400   65.5970   -5.6200 O.2   137  SER137     -0.2717
    141  CB        56.4750   67.9840   -5.7320 C.3   137  SER137      0.2103
    142  OG        57.1930   68.8260   -6.6360 O.3   137  SER137     -0.2182
    143  N         53.8090   67.2600   -4.1830 N.am  138  THR138     -0.1952
    144  CA        53.0810   66.3430   -3.2770 C.3   138  THR138      0.1897
    145  C         51.8140   65.7950   -3.8820 C.2   138  THR138      0.2313
    146  O         51.5230   64.5800   -3.8930 O.2   138  THR138     -0.2863
    147  CB        52.8380   67.0510   -1.9460 C.3   138  THR138      0.1794
    148  OG1       54.1220   67.4710   -1.4210 O.3   138  THR138     -0.2208
    149  CG2       52.1680   66.2010   -0.9000 C.3   138  THR138      0.0378
    150  N         52.5880   63.1330   -6.2450 N.3   141  TYR141     -0.1241
    151  CA        52.8090   61.8440   -5.5550 C.3   141  TYR141      0.1605
    152  C         51.4790   61.1330   -5.3310 C.2   141  TYR141      0.2264
    153  O         51.3280   59.9120   -5.5810 O.2   141  TYR141     -0.2867
    154  CB        53.5230   62.0590   -4.2660 C.3   141  TYR141      0.0534
    155  CG        53.6180   60.8830   -3.3230 C.ar  141  TYR141     -0.0201
    156  CD1       54.1360   59.6500   -3.7160 C.ar  141  TYR141     -0.0009
    157  CD2       53.2060   61.0080   -1.9970 C.ar  141  TYR141     -0.0009
    158  CE1       54.2130   58.5820   -2.8000 C.ar  141  TYR141      0.0417
    159  CE2       53.2910   59.9540   -1.1120 C.ar  141  TYR141      0.0417
    160  CZ        53.7980   58.7440   -1.5140 C.ar  141  TYR141      0.1957
    161  OH        53.8690   57.7080   -0.5850 O.3   141  TYR141     -0.2866
@<TRIPOS>BOND
     1    29    30    2
     2    29    28    1
     3    28    27    1
     4    28    31    1
     5    34    32    1
     6    31    32    1
     7   142   141    1
     8   137   138    1
     9    32    33    1
    10   150   151    1
    11   138   141    1
    12   138   139    1
    13   140   139    2
    14   153   152    2
    15   151   152    1
    16   151   154    1
    17    23    22    2
    18   139   143   am
    19    22    21    1
    20   154   155    1
    21   130   131    1
    22   143   144    1
    23   146   145    2
    24   145   144    1
    25   156   155   ar
    26   156   158   ar
    27   131   132    1
    28   131   134    1
    29   132   133    2
    30   155   157   ar
    31   144   147    1
    32    21    20    1
    33    21    24    1
    34    99    98    1
    35   158   160   ar
    36    25    24    1
    37    96    98   ar
    38    96    94   ar
    39   136   134    1
    40   134   135    1
    41    24    26    1
    42   157   159   ar
    43   147   148    1
    44   147   149    1
    45    98    97   ar
    46   160   159   ar
    47   160   161    1
    48    94    93   ar
    49    97    95   ar
    50    45    46    2
    51    45    44    1
    52    93    95   ar
    53    93    92    1
    54    12    11    2
    55    50    52   ar
    56    50    48   ar
    57    47    44    1
    58    47    48    1
    59   111   110    1
    60    44    43    1
    61    89    88    1
    62    89    92    1
    63    89    90    1
    64    52    53   ar
    65    48    49   ar
    66    11    10    1
    67   128   129   ar
    68   128   126   ar
    69    54    55    1
    70    61    60    2
    71    62    60   am
    72    10    13    1
    73    10     9    1
    74     7     6    1
    75     1     2    1
    76    60    59    1
    77    58    55    1
    78    58    59    2
    79   129   127   ar
    80    91    90    2
    81   110   109   ar
    82   110   108   ar
    83   126   124   ar
    84   109   107   ar
    85    13    14    1
    86     2     5    1
    87     2     3    1
    88     5     6    1
    89    55    56    1
    90    53    51   ar
    91    49    51   ar
    92   108   106   ar
    93     6     8    1
    94   127   125   ar
    95   107   105   ar
    96   118   116    1
    97    57    56    2
    98   117   116    1
    99   124   125   ar
   100   124   123    1
   101     3     4    2
   102   106   105   ar
   103    14    15   ar
   104    14    16   ar
   105    71    69   ar
   106   105   104    1
   107    70    69   ar
   108   116   113    1
   109    15    17   ar
   110    69    68    1
   111   123   120    1
   112    16    18   ar
   113   120   119    1
   114   120   121    1
   115    68    67    1
   116   104   101    1
   117   113   112    1
   118   113   114    1
   119    17    19   ar
   120    41    40    1
   121   121   122    2
   122    86    85    1
   123    18    19   ar
   124    39    40    1
   125    39    36    1
   126   114   115    2
   127    37    38    2
   128    37    36    1
   129    67    64    1
   130   101   102    1
   131   101   100    1
   132    87    85    1
   133    78    76    1
   134    40    42    1
   135    63    64    1
   136    84    85    1
   137    84    81    1
   138    36    35    1
   139   102   103    2
   140    83    82    2
   141    64    65    1
   142    75    74    2
   143    79    77    1
   144    82    81    1
   145    76    77    1
   146    76    73    1
   147    81    80    1
   148    65    66    2
   149    74    73    1
   150    72    73    1
