@<TRIPOS>MOLECULE
tmp/2flhD01.pdb
 140 133 0 0 0
SMALL
GASTEIGER

@<TRIPOS>ATOM
      1  N         57.3060   54.0240   -2.7470 N.3    29  VAL29      -0.1245
      2  CA        57.8210   55.3350   -3.1950 C.3    29  VAL29       0.1561
      3  C         58.7760   55.2190   -4.3350 C.2    29  VAL29       0.2260
      4  O         58.5960   55.9830   -5.3240 O.2    29  VAL29      -0.2867
      5  CB        58.3960   56.1230   -2.0020 C.3    29  VAL29       0.0252
      6  CG1       59.1780   57.3510   -2.4740 C.3    29  VAL29       0.0019
      7  CG2       57.2410   56.5290   -1.1030 C.3    29  VAL29       0.0019
      8  N         57.7930   57.1340   -7.8290 N.3    33  LEU33      -0.1245
      9  CA        58.6210   58.3170   -8.2160 C.3    33  LEU33       0.1561
     10  C         59.9670   57.8720   -8.7650 C.2    33  LEU33       0.2260
     11  O         61.0360   58.2760   -8.2390 O.2    33  LEU33      -0.2867
     12  CB        58.8180   59.2100   -7.0050 C.3    33  LEU33       0.0270
     13  CG        57.4740   59.6020   -6.2970 C.3    33  LEU33       0.0019
     14  CD1       57.7460   60.4140   -5.0700 C.3    33  LEU33       0.0001
     15  CD2       56.5630   60.2630   -7.3000 C.3    33  LEU33       0.0001
     16  N         62.6870   60.3470   -9.5410 N.3    36  ILE36      -0.1231
     17  CA        63.1900   61.1330   -8.4460 C.3    36  ILE36       0.1692
     18  C         63.8730   60.3260   -7.3570 C.2    36  ILE36       0.2591
     19  O         64.9860   60.6270   -6.9540 O.2    36  ILE36      -0.2718
     20  CB        62.0610   61.9390   -7.7050 C.3    36  ILE36       0.0266
     21  CG1       61.2370   62.7880   -8.6560 C.3    36  ILE36       0.0019
     22  CG2       62.6660   62.7540   -6.5830 C.3    36  ILE36       0.0020
     23  CD1       61.5380   64.2620   -8.5440 C.3    36  ILE36       0.0001
     24  N         63.1920   59.3070   -6.8480 N.am   37  VAL37      -0.1980
     25  CA        63.6800   58.5890   -5.6970 C.3    37  VAL37       0.1595
     26  C         64.3400   57.2770   -6.1450 C.2    37  VAL37       0.2287
     27  O         63.7400   56.4600   -6.8300 O.2    37  VAL37      -0.2864
     28  CB        62.5730   58.3030   -4.6590 C.3    37  VAL37       0.0276
     29  CG1       63.0500   57.4130   -3.5470 C.3    37  VAL37       0.0022
     30  CG2       62.0140   59.6260   -4.0740 C.3    37  VAL37       0.0022
     31  N         65.3970   59.3350    2.1760 N.3    55  PHE55      -0.1241
     32  CA        65.0620   59.2790    0.7540 C.3    55  PHE55       0.1605
     33  C         66.3450   59.6060   -0.0100 C.2    55  PHE55       0.2264
     34  O         66.8690   60.6850    0.0820 O.2    55  PHE55      -0.2867
     35  CB        63.9400   60.2380    0.3920 C.3    55  PHE55       0.0534
     36  CG        62.6060   59.9000    1.0420 C.ar   55  PHE55      -0.0203
     37  CD1       62.3240   60.2870    2.3430 C.ar   55  PHE55      -0.0042
     38  CD2       61.6340   59.1880    0.3700 C.ar   55  PHE55      -0.0042
     39  CE1       61.1480   59.9800    2.9560 C.ar   55  PHE55      -0.0003
     40  CE2       60.4260   58.8770    0.9920 C.ar   55  PHE55      -0.0003
     41  CZ        60.1760   59.2910    2.2920 C.ar   55  PHE55      -0.0000
     42  N         68.0180   60.2420   -3.5420 N.3    57  PHE57      -0.1241
     43  CA        67.5990   60.6300   -4.8850 C.3    57  PHE57       0.1605
     44  C         68.5900   60.1340   -5.9330 C.2    57  PHE57       0.2264
     45  O         69.7320   59.7710   -5.6170 O.2    57  PHE57      -0.2867
     46  CB        67.4710   62.1470   -4.9850 C.3    57  PHE57       0.0534
     47  CG        66.4560   62.7060   -3.9820 C.ar   57  PHE57      -0.0203
     48  CD1       65.1740   62.1810   -3.8850 C.ar   57  PHE57      -0.0042
     49  CD2       66.7810   63.7720   -3.1680 C.ar   57  PHE57      -0.0042
     50  CE1       64.2520   62.7160   -2.9850 C.ar   57  PHE57      -0.0003
     51  CE2       65.8930   64.2980   -2.2580 C.ar   57  PHE57      -0.0003
     52  CZ        64.6240   63.7760   -2.1810 C.ar   57  PHE57      -0.0000
     53  N         70.2920   64.2960   -9.3140 N.3    61  VAL61      -0.1231
     54  CA        69.3730   65.1430   -8.5160 C.3    61  VAL61       0.1692
     55  C         70.1370   65.8330   -7.4150 C.2    61  VAL61       0.2593
     56  O         70.9430   65.1880   -6.7350 O.2    61  VAL61      -0.2718
     57  CB        68.2520   64.3030   -7.8840 C.3    61  VAL61       0.0266
     58  CG1       67.3750   65.1440   -6.9910 C.3    61  VAL61       0.0020
     59  CG2       67.4100   63.6160   -8.9790 C.3    61  VAL61       0.0020
     60  N         69.9460   67.1220   -7.1790 N.am   62  SER62      -0.1939
     61  CA        70.6490   67.7700   -6.0710 C.3    62  SER62       0.2040
     62  C         69.6560   68.6230   -5.2680 C.2    62  SER62       0.2485
     63  O         68.8820   69.3560   -5.9370 O.2    62  SER62      -0.2729
     64  CB        71.8430   68.5930   -6.4820 C.3    62  SER62       0.2129
     65  OG        72.6000   68.9240   -5.2720 O.3    62  SER62      -0.2179
     66  N         69.6010   68.5770   -3.9520 N.am   63  PRO63      -0.2726
     67  CA        70.3750   67.7280   -3.0660 C.3    63  PRO63       0.1402
     68  C         70.0930   66.2270   -3.3350 C.2    63  PRO63       0.2269
     69  O         69.1280   65.9020   -3.9930 O.2    63  PRO63      -0.2865
     70  CB        69.8740   68.0290   -1.6500 C.3    63  PRO63       0.0296
     71  CG        68.5250   68.5760   -1.9040 C.3    63  PRO63       0.0237
     72  CD        68.6880   69.4310   -3.1480 C.3    63  PRO63       0.0939
     73  N         66.9550   63.4410    1.2240 N.3    66  GLN66      -0.1196
     74  CA        66.1170   64.1700    2.2050 C.3    66  GLN66       0.1782
     75  C         66.0160   63.2080    3.4020 C.2    66  GLN66       0.2306
     76  O         65.9490   61.9840    3.1690 O.2    66  GLN66      -0.2863
     77  CB        64.7590   64.5800    1.6900 C.2    66  GLN66       0.0051
     78  CG        63.9980   65.6970    2.4200 C.2    66  GLN66       0.0584
     79  CD        62.8920   66.4050    1.6790 C.2    66  GLN66       0.2840
     80  OE1       62.8800   67.6600    1.3060 O.2    66  GLN66      -0.2667
     81  NE2       61.8190   65.6940    1.4050 N.am   66  GLN66      -0.0837
     82  N         63.5060   62.4810    6.6660 N.3    68  GLU68      -0.1245
     83  CA        62.1850   62.8620    7.1990 C.3    68  GLU68       0.1567
     84  C         61.8640   62.0290    8.4330 C.2    68  GLU68       0.2260
     85  O         62.3140   60.8870    8.5580 O.2    68  GLU68      -0.2867
     86  CB        61.0750   62.7570    6.1720 C.3    68  GLU68       0.0388
     87  CG        61.2180   63.6130    4.9380 C.3    68  GLU68       0.1160
     88  CD        59.9240   63.7370    4.1170 C.2    68  GLU68       0.3649
     89  OE1       59.3060   62.7140    3.8520 O.co2  68  GLU68      -0.2457
     90  OE2       59.5430   64.8540    3.7080 O.co2  68  GLU68      -0.2457
     91  N         67.0300   67.6840    1.3700 N.3    88  GLY88      -0.1210
     92  CA        65.8820   68.1200    0.6260 C.3    88  GLY88       0.1956
     93  C         65.6950   69.6110    0.6190 C.2    88  GLY88       0.2611
     94  O         66.6440   70.3790    0.3910 O.2    88  GLY88      -0.2717
     95  N         64.4820   70.0640    0.9080 N.am   89  TYR89      -0.1976
     96  CA        64.2060   71.4870    0.8760 C.3    89  TYR89       0.1639
     97  C         64.9920   72.2670    1.9230 C.2    89  TYR89       0.2290
     98  O         65.1860   73.4850    1.7380 O.2    89  TYR89      -0.2864
     99  CB        62.7260   71.7410    1.0440 C.3    89  TYR89       0.0560
    100  CG        61.8060   71.1640    0.0130 C.ar   89  TYR89      -0.0198
    101  CD1       62.1110   71.2150   -1.3500 C.ar   89  TYR89      -0.0009
    102  CD2       60.6180   70.5400    0.3800 C.ar   89  TYR89      -0.0009
    103  CE1       61.2670   70.6710   -2.2810 C.ar   89  TYR89       0.0417
    104  CE2       59.7540   70.0050   -0.5530 C.ar   89  TYR89       0.0417
    105  CZ        60.0640   70.0610   -1.8780 C.ar   89  TYR89       0.1957
    106  OH        59.2450   69.5540   -2.8420 O.3    89  TYR89      -0.2866
    107  N         67.7790   73.9810    0.3640 N.3    92  GLN92      -0.1245
    108  CA        67.3610   74.8850   -0.6980 C.3    92  GLN92       0.1566
    109  C         66.6980   76.1330   -0.1760 C.2    92  GLN92       0.2260
    110  O         65.8850   76.7360   -0.9000 O.2    92  GLN92      -0.2867
    111  CB        66.3940   74.1730   -1.6860 C.3    92  GLN92       0.0367
    112  CG        66.9960   72.8790   -2.2830 C.3    92  GLN92       0.0905
    113  CD        66.0940   72.2360   -3.2930 C.2    92  GLN92       0.2608
    114  OE1       64.9410   71.9780   -3.0340 O.2    92  GLN92      -0.2717
    115  NE2       66.6030   71.9100   -4.4820 N.am   92  GLN92      -0.0878
    116  N         54.3310   69.0370   -6.3130 N.3   137  SER137     -0.1202
    117  CA        55.0390   67.7690   -6.2390 C.3   137  SER137      0.2020
    118  C         54.3270   66.7770   -5.3200 C.2   137  SER137      0.2619
    119  O         54.2400   65.5970   -5.6200 O.2   137  SER137     -0.2717
    120  CB        56.4750   67.9840   -5.7320 C.3   137  SER137      0.2103
    121  OG        57.1930   68.8260   -6.6360 O.3   137  SER137     -0.2182
    122  N         53.8090   67.2600   -4.1830 N.am  138  THR138     -0.1952
    123  CA        53.0810   66.3430   -3.2770 C.3   138  THR138      0.1897
    124  C         51.8140   65.7950   -3.8820 C.2   138  THR138      0.2313
    125  O         51.5230   64.5800   -3.8930 O.2   138  THR138     -0.2863
    126  CB        52.8380   67.0510   -1.9460 C.3   138  THR138      0.1794
    127  OG1       54.1220   67.4710   -1.4210 O.3   138  THR138     -0.2208
    128  CG2       52.1680   66.2010   -0.9000 C.3   138  THR138      0.0378
    129  N         52.5880   63.1330   -6.2450 N.3   141  TYR141     -0.1241
    130  CA        52.8090   61.8440   -5.5550 C.3   141  TYR141      0.1605
    131  C         51.4790   61.1330   -5.3310 C.2   141  TYR141      0.2264
    132  O         51.3280   59.9120   -5.5810 O.2   141  TYR141     -0.2867
    133  CB        53.5230   62.0590   -4.2660 C.3   141  TYR141      0.0534
    134  CG        53.6180   60.8830   -3.3230 C.ar  141  TYR141     -0.0201
    135  CD1       54.1360   59.6500   -3.7160 C.ar  141  TYR141     -0.0009
    136  CD2       53.2060   61.0080   -1.9970 C.ar  141  TYR141     -0.0009
    137  CE1       54.2130   58.5820   -2.8000 C.ar  141  TYR141      0.0417
    138  CE2       53.2910   59.9540   -1.1120 C.ar  141  TYR141      0.0417
    139  CZ        53.7980   58.7440   -1.5140 C.ar  141  TYR141      0.1957
    140  OH        53.8690   57.7080   -0.5850 O.3   141  TYR141     -0.2866
@<TRIPOS>BOND
     1    16    17    1
     2    53    54    1
     3    59    57    1
     4    10    11    2
     5    10     9    1
     6    21    23    1
     7    21    20    1
     8    54    57    1
     9    54    55    1
    10    17    20    1
    11    17    18    1
    12     9     8    1
    13     9    12    1
    14    57    58    1
    15    20    22    1
    16    55    60   am
    17    55    56    2
    18    18    19    2
    19    18    24   am
    20    15    13    1
    21    60    61    1
    22    12    13    1
    23    24    25    1
    24    27    26    2
    25   121   120    1
    26    64    61    1
    27    64    65    1
    28   116   117    1
    29    13    14    1
    30   129   130    1
    31   117   120    1
    32   117   118    1
    33    26    25    1
    34    61    62    1
    35    63    62    2
    36    44    45    2
    37    44    43    1
    38    25    28    1
    39   119   118    2
    40   132   131    2
    41   130   131    1
    42   130   133    1
    43     4     3    2
    44   118   122   am
    45    62    66   am
    46    46    43    1
    47    46    47    1
    48    43    42    1
    49    28    30    1
    50    28    29    1
    51   115   113   am
    52     3     2    1
    53   133   134    1
    54   122   123    1
    55    69    68    2
    56    47    48   ar
    57    47    49   ar
    58    66    72    1
    59    66    67    1
    60   125   124    2
    61    48    50   ar
    62   124   123    1
    63   135   134   ar
    64   135   137   ar
    65    68    67    1
    66   134   136   ar
    67   113   114    2
    68   113   112    1
    69   123   126    1
    70     2     1    1
    71     2     5    1
    72    49    51   ar
    73    72    71    1
    74    67    70    1
    75    50    52   ar
    76   106   105    1
    77   137   139   ar
    78     6     5    1
    79   112   111    1
    80   103   105   ar
    81   103   101   ar
    82    51    52   ar
    83     5     7    1
    84   136   138   ar
    85   126   127    1
    86   126   128    1
    87    71    70    1
    88   105   104   ar
    89   111   108    1
    90   139   138   ar
    91   139   140    1
    92   101   100   ar
    93   110   109    2
    94   108   109    1
    95   108   107    1
    96   104   102   ar
    97    33    34    2
    98    33    32    1
    99   100   102   ar
   100   100    99    1
   101    38    40   ar
   102    38    36   ar
   103    94    93    2
   104    35    32    1
   105    35    36    1
   106    93    92    1
   107    93    95   am
   108    92    91    1
   109    32    31    1
   110    96    95    1
   111    96    99    1
   112    96    97    1
   113    40    41   ar
   114    36    37   ar
   115    73    74    1
   116    80    79    2
   117    81    79   am
   118    79    78    1
   119    77    74    1
   120    77    78    2
   121    98    97    2
   122    74    75    1
   123    41    39   ar
   124    37    39   ar
   125    76    75    2
   126    90    88   ar
   127    89    88   ar
   128    88    87    1
   129    87    86    1
   130    86    83    1
   131    82    83    1
   132    83    84    1
   133    84    85    2
