@<TRIPOS>MOLECULE
tmp/2fliC00.pdb
 174 167 0 0 0
SMALL
GASTEIGER

@<TRIPOS>ATOM
      1  N         53.3130  132.8260   78.1580 N.3     8  SER8       -0.1217
      2  CA        52.3710  131.7310   77.9300 C.3     8  SER8        0.1889
      3  C         50.9330  132.2340   77.9990 C.2     8  SER8        0.2288
      4  O         50.4570  132.6520   79.0500 O.2     8  SER8       -0.2866
      5  CB        52.5850  130.6250   78.9660 C.3     8  SER8        0.2089
      6  OG        51.6220  129.6030   78.8120 O.3     8  SER8       -0.2183
      7  N         48.3870  130.7000   78.1760 N.3    10  LEU10      -0.1231
      8  CA        47.5720  129.8830   79.0730 C.3    10  LEU10       0.1693
      9  C         47.2340  130.6710   80.3440 C.2    10  LEU10       0.2591
     10  O         46.2020  130.4380   80.9790 O.2    10  LEU10      -0.2718
     11  CB        48.3190  128.5970   79.4440 C.3    10  LEU10       0.0284
     12  CG        47.5690  127.5930   80.3220 C.3    10  LEU10       0.0019
     13  CD1       46.4670  126.9240   79.4970 C.3    10  LEU10       0.0001
     14  CD2       48.5340  126.5460   80.8550 C.3    10  LEU10       0.0001
     15  N         48.1010  131.6110   80.7130 N.am   11  ALA11      -0.1980
     16  CA        47.8840  132.4170   81.9150 C.3    11  ALA11       0.1597
     17  C         47.1010  133.6980   81.6470 C.2    11  ALA11       0.2287
     18  O         46.8230  134.4610   82.5720 O.2    11  ALA11      -0.2864
     19  CB        49.2390  132.7710   82.5650 C.3    11  ALA11       0.0319
     20  N         53.7560  131.7370   73.7060 N.3    33  HIS33      -0.1241
     21  CA        53.7170  130.2910   73.9210 C.3    33  HIS33       0.1621
     22  C         52.2580  129.8610   74.0510 C.2    33  HIS33       0.2264
     23  O         51.5260  130.3750   74.9010 O.2    33  HIS33      -0.2867
     24  CB        54.4850  129.9110   75.1840 C.3    33  HIS33       0.0745
     25  CG        54.7260  128.4390   75.3130 C.ar   33  HIS33       0.0817
     26  ND1       55.7240  127.7840   74.6250 N.ar   33  HIS33      -0.2268
     27  CD2       54.0620  127.4870   76.0060 C.ar   33  HIS33       0.1154
     28  CE1       55.6660  126.4930   74.8870 C.ar   33  HIS33       0.1986
     29  NE2       54.6650  126.2860   75.7210 N.ar   33  HIS33      -0.2212
     30  N         49.8030  126.7340   74.7440 N.3    35  ASP35      -0.1239
     31  CA        49.5930  125.3970   75.2840 C.3    35  ASP35       0.1674
     32  C         48.2880  124.7260   74.8770 C.2    35  ASP35       0.2266
     33  O         47.2240  125.1150   75.3400 O.2    35  ASP35      -0.2867
     34  CB        49.6570  125.4790   76.7990 C.3    35  ASP35       0.1410
     35  CG        51.0430  125.7740   77.2770 C.2    35  ASP35       0.3668
     36  OD1       51.9210  124.9600   76.9560 O.co2  35  ASP35      -0.2456
     37  OD2       51.2550  126.8020   77.9420 O.co2  35  ASP35      -0.2456
     38  N         46.0180  121.5780   75.1300 N.3    37  MET37      -0.1245
     39  CA        45.7600  120.4320   76.0080 C.3    37  MET37       0.1570
     40  C         44.4590  119.7550   75.5950 C.2    37  MET37       0.2261
     41  O         43.4510  120.4330   75.3890 O.2    37  MET37      -0.2867
     42  CB        45.6540  120.9030   77.4520 C.3    37  MET37       0.0387
     43  CG        46.9100  121.5760   77.9460 C.3    37  MET37       0.0595
     44  SD        46.6640  122.2360   79.5840 S.3    37  MET37      -0.1393
     45  CE        48.1630  123.1850   79.7650 C.3    37  MET37       0.0692
     46  N         52.7630  124.4250   71.7300 N.3    66  HIS66      -0.1241
     47  CA        53.1750  123.2820   72.5230 C.3    66  HIS66       0.1621
     48  C         51.9860  122.3290   72.6410 C.2    66  HIS66       0.2264
     49  O         51.0040  122.6350   73.3250 O.2    66  HIS66      -0.2867
     50  CB        53.6170  123.7720   73.9070 C.3    66  HIS66       0.0745
     51  CG        53.9570  122.6770   74.8690 C.ar   66  HIS66       0.0817
     52  ND1       54.2120  122.9170   76.2000 N.ar   66  HIS66      -0.2268
     53  CD2       54.0740  121.3380   74.7000 C.ar   66  HIS66       0.1154
     54  CE1       54.4690  121.7750   76.8130 C.ar   66  HIS66       0.1986
     55  NE2       54.3920  120.8010   75.9250 N.ar   66  HIS66      -0.2212
     56  N         50.2370  119.3890   74.1660 N.3    68  MET68      -0.1245
     57  CA        50.1220  118.4200   75.2450 C.3    68  MET68       0.1570
     58  C         48.8750  117.6120   74.9010 C.2    68  MET68       0.2261
     59  O         47.8440  117.6880   75.5700 O.2    68  MET68      -0.2867
     60  CB        49.9760  119.1270   76.5870 C.3    68  MET68       0.0387
     61  CG        51.2930  119.7290   77.0840 C.3    68  MET68       0.0595
     62  SD        51.0450  120.8910   78.4260 S.3    68  MET68      -0.1393
     63  CE        50.7790  122.3690   77.4930 C.3    68  MET68       0.0692
     64  N         60.6860  120.5420   80.0980 N.3   137  MET137     -0.1245
     65  CA        59.6740  120.9570   81.0550 C.3   137  MET137      0.1570
     66  C         60.3500  121.1260   82.4140 C.2   137  MET137      0.2261
     67  O         61.1500  120.2820   82.8270 O.2   137  MET137     -0.2867
     68  CB        58.5620  119.9110   81.1750 C.3   137  MET137      0.0387
     69  CG        57.6110  119.8020   79.9750 C.3   137  MET137      0.0595
     70  SD        56.8730  121.3810   79.4530 S.3   137  MET137     -0.1393
     71  CE        55.8210  121.7810   80.8730 C.3   137  MET137      0.0692
     72  N         58.3370  121.8870   85.0440 N.3   139  VAL139     -0.1245
     73  CA        57.2040  121.5780   85.9090 C.3   139  VAL139      0.1561
     74  C         56.5130  120.4660   85.1410 C.2   139  VAL139      0.2260
     75  O         56.7280  120.3200   83.9370 O.2   139  VAL139     -0.2867
     76  CB        56.1840  122.7400   86.0830 C.3   139  VAL139      0.0252
     77  CG1       56.8790  123.9720   86.6300 C.3   139  VAL139      0.0019
     78  CG2       55.4570  123.0170   84.7730 C.3   139  VAL139      0.0019
     79  N         53.6960  118.9720   83.0960 N.3   141  PRO141     -0.2102
     80  CA        52.6460  119.5790   82.2730 C.3   141  PRO141      0.1504
     81  C         51.2610  119.5070   82.8970 C.2   141  PRO141      0.2576
     82  O         50.9370  118.5490   83.5960 O.2   141  PRO141     -0.2718
     83  CB        52.7250  118.7880   80.9700 C.3   141  PRO141      0.0282
     84  CG        54.1640  118.4060   80.8970 C.3   141  PRO141      0.0208
     85  CD        54.4630  117.9870   82.3190 C.3   141  PRO141      0.0893
     86  N         50.4430  120.5220   82.6380 N.am  142  GLY142     -0.1943
     87  CA        49.0980  120.5190   83.1830 C.3   142  GLY142      0.2014
     88  C         48.4960  121.8800   83.4550 C.2   142  GLY142      0.2639
     89  O         47.3720  122.1570   83.0280 O.2   142  GLY142     -0.2714
     90  N         49.2300  122.7310   84.1660 N.am  143  PHE143     -0.1959
     91  CA        48.7360  124.0630   84.4890 C.3   143  PHE143      0.1771
     92  C         49.8330  125.0040   84.9600 C.2   143  PHE143      0.2620
     93  O         50.9810  124.5970   85.1380 O.2   143  PHE143     -0.2715
     94  CB        47.6360  123.9670   85.5490 C.3   143  PHE143      0.0574
     95  CG        48.0180  123.1530   86.7490 C.ar  143  PHE143     -0.0200
     96  CD1       48.5900  123.7600   87.8670 C.ar  143  PHE143     -0.0042
     97  CD2       47.8130  121.7740   86.7610 C.ar  143  PHE143     -0.0042
     98  CE1       48.9520  123.0020   88.9870 C.ar  143  PHE143     -0.0003
     99  CE2       48.1710  121.0050   87.8710 C.ar  143  PHE143     -0.0003
    100  CZ        48.7420  121.6210   88.9900 C.ar  143  PHE143     -0.0000
    101  N         49.4750  126.2680   85.1500 N.am  144  GLY144     -0.1940
    102  CA        50.4500  127.2430   85.5990 C.3   144  GLY144      0.2014
    103  C         50.5110  127.3250   87.1120 C.2   144  GLY144      0.2639
    104  O         49.7590  126.6370   87.8090 O.2   144  GLY144     -0.2714
    105  N         51.4230  128.1550   87.6130 N.am  145  GLY145     -0.1939
    106  CA        51.5650  128.3430   89.0480 C.3   145  GLY145      0.2014
    107  C         52.2870  127.2530   89.8180 C.2   145  GLY145      0.2638
    108  O         52.3820  127.3300   91.0430 O.2   145  GLY145     -0.2714
    109  N         52.8100  126.2480   89.1200 N.am  146  GLN146     -0.1977
    110  CA        53.5110  125.1550   89.7880 C.3   146  GLN146      0.1601
    111  C         54.9290  125.4910   90.2300 C.2   146  GLN146      0.2287
    112  O         55.5420  126.4400   89.7320 O.2   146  GLN146     -0.2864
    113  CB        53.5560  123.9320   88.8790 C.3   146  GLN146      0.0394
    114  CG        52.2240  123.2320   88.7580 C.3   146  GLN146      0.0908
    115  CD        52.2920  122.0490   87.8240 C.2   146  GLN146      0.2608
    116  OE1       52.1940  122.1960   86.6020 O.2   146  GLN146     -0.2717
    117  NE2       52.4790  120.8680   88.3900 N.am  146  GLN146     -0.0878
    118  N         60.1620  125.6100   80.2920 N.3   175  ASP175     -0.1225
    119  CA        58.7870  126.0150   80.5230 C.3   175  ASP175      0.1805
    120  C         58.2440  125.4500   81.8340 C.2   175  ASP175      0.2598
    121  O         58.2210  124.2390   82.0450 O.2   175  ASP175     -0.2718
    122  CB        57.9410  125.5650   79.3330 C.3   175  ASP175      0.1424
    123  CG        56.4550  125.8010   79.5360 C.2   175  ASP175      0.3668
    124  OD1       56.0690  126.7090   80.3010 O.co2 175  ASP175     -0.2456
    125  OD2       55.6740  125.0670   78.9070 O.co2 175  ASP175     -0.2456
    126  N         57.8300  126.3480   82.7210 N.am  176  GLY176     -0.1942
    127  CA        57.2830  125.9290   83.9920 C.3   176  GLY176      0.2014
    128  C         58.0240  126.5030   85.1840 C.2   176  GLY176      0.2639
    129  O         59.1670  126.1370   85.4370 O.2   176  GLY176     -0.2714
    130  N         57.3650  127.3970   85.9140 N.am  177  GLY177     -0.1939
    131  CA        57.9670  128.0020   87.0900 C.3   177  GLY177      0.2014
    132  C         59.0920  128.9740   86.8040 C.2   177  GLY177      0.2638
    133  O         59.8860  129.2980   87.6920 O.2   177  GLY177     -0.2714
    134  N         59.1760  129.4410   85.5650 N.am  178  VAL178     -0.1977
    135  CA        60.2100  130.3990   85.1990 C.3   178  VAL178      0.1596
    136  C         59.8160  131.7790   85.6990 C.2   178  VAL178      0.2287
    137  O         58.7630  132.2990   85.3320 O.2   178  VAL178     -0.2864
    138  CB        60.4010  130.4770   83.6700 C.3   178  VAL178      0.0276
    139  CG1       61.5080  131.4750   83.3410 C.3   178  VAL178      0.0022
    140  CG2       60.7480  129.1060   83.1160 C.3   178  VAL178      0.0022
    141  N         59.8640  130.3510   78.7240 N.3   195  VAL195     -0.1231
    142  CA        58.4060  130.4710   78.7590 C.3   195  VAL195      0.1692
    143  C         57.9880  130.8680   80.1710 C.2   195  VAL195      0.2592
    144  O         58.4680  130.3000   81.1480 O.2   195  VAL195     -0.2718
    145  CB        57.7180  129.1280   78.4190 C.3   195  VAL195      0.0266
    146  CG1       56.2040  129.2820   78.5080 C.3   195  VAL195      0.0020
    147  CG2       58.1290  128.6720   77.0320 C.3   195  VAL195      0.0020
    148  N         57.0950  131.8450   80.2760 N.am  196  ALA196     -0.1966
    149  CA        56.6180  132.2910   81.5750 C.3   196  ALA196      0.1728
    150  C         55.1480  132.6630   81.4690 C.2   196  ALA196      0.2617
    151  O         54.7640  133.4650   80.6120 O.2   196  ALA196     -0.2715
    152  CB        57.4310  133.4900   82.0510 C.3   196  ALA196      0.0334
    153  N         54.3360  132.0720   82.3420 N.am  197  GLY197     -0.1940
    154  CA        52.9090  132.3320   82.3420 C.3   197  GLY197      0.2014
    155  C         52.4490  133.1200   83.5490 C.2   197  GLY197      0.2640
    156  O         52.3490  134.3440   83.4850 O.2   197  GLY197     -0.2714
    157  N         52.1860  132.4260   84.6550 N.am  198  SER198     -0.1935
    158  CA        51.7090  133.0780   85.8760 C.3   198  SER198      0.2055
    159  C         52.5380  134.2720   86.3540 C.2   198  SER198      0.2643
    160  O         51.9780  135.2680   86.8190 O.2   198  SER198     -0.2714
    161  CB        51.5890  132.0570   87.0220 C.3   198  SER198      0.2130
    162  OG        52.8450  131.4850   87.3730 O.3   198  SER198     -0.2179
    163  N         53.8580  134.1810   86.2490 N.am  199  TYR199     -0.1973
    164  CA        54.7180  135.2690   86.7050 C.3   199  TYR199      0.1639
    165  C         54.4980  136.5550   85.9220 C.2   199  TYR199      0.2290
    166  O         54.5160  137.6470   86.4910 O.2   199  TYR199     -0.2864
    167  CB        56.1950  134.8810   86.6100 C.3   199  TYR199      0.0560
    168  CG        57.1220  136.0120   87.0160 C.ar  199  TYR199     -0.0198
    169  CD1       57.2190  136.4120   88.3490 C.ar  199  TYR199     -0.0009
    170  CD2       57.8510  136.7250   86.0590 C.ar  199  TYR199     -0.0009
    171  CE1       58.0110  137.4960   88.7230 C.ar  199  TYR199      0.0417
    172  CE2       58.6500  137.8170   86.4230 C.ar  199  TYR199      0.0417
    173  CZ        58.7200  138.1970   87.7560 C.ar  199  TYR199      0.1957
    174  OH        59.4590  139.3000   88.1230 O.3   199  TYR199     -0.2866
@<TRIPOS>BOND
     1    46    47    1
     2    47    48    1
     3    47    50    1
     4    48    49    2
     5    20    21    1
     6    50    51    1
     7    21    22    1
     8    21    24    1
     9    22    23    2
    10    56    57    1
    11    26    28   ar
    12    26    25   ar
    13    53    51   ar
    14    53    55   ar
    15    30    31    1
    16    51    52   ar
    17    32    31    1
    18    32    33    2
    19    28    29   ar
    20    58    57    1
    21    58    59    2
    22    38    39    1
    23    24    25    1
    24    57    60    1
    25    31    34    1
    26    25    27   ar
    27    41    40    2
    28    40    39    1
    29    29    27   ar
    30    55    54   ar
    31    39    42    1
    32    52    54   ar
    33    60    61    1
    34    34    35    1
    35    36    35   ar
    36   147   145    1
    37    61    62    1
    38    35    37   ar
    39    42    43    1
    40    63    62    1
    41     2     3    1
    42     2     1    1
    43     2     5    1
    44    43    44    1
    45     3     4    2
    46     7     8    1
    47   145   146    1
    48   145   142    1
    49   141   142    1
    50   142   143    1
    51     6     5    1
    52   125   123   ar
    53     8    11    1
    54     8     9    1
    55   122   123    1
    56   122   119    1
    57    11    12    1
    58    70    69    1
    59    70    71    1
    60    13    12    1
    61   123   124   ar
    62    44    45    1
    63    69    68    1
    64    64    65    1
    65   143   148   am
    66   143   144    2
    67   148   149    1
    68   118   119    1
    69    12    14    1
    70     9    15   am
    71     9    10    2
    72   119   120    1
    73   151   150    2
    74    15    16    1
    75    84    83    1
    76    84    85    1
    77    83    80    1
    78    65    68    1
    79    65    66    1
    80   150   149    1
    81   150   153   am
    82   149   152    1
    83    17    16    1
    84    17    18    2
    85   120   121    2
    86   120   126   am
    87    16    19    1
    88    80    81    1
    89    80    79    1
    90    85    79    1
    91   153   154    1
    92   154   155    1
    93    66    67    2
    94    86    81   am
    95    86    87    1
    96   126   127    1
    97    81    82    2
    98    89    88    2
    99   140   138    1
   100    87    88    1
   101   139   138    1
   102    88    90   am
   103   156   155    2
   104   155   157   am
   105   138   135    1
   106    75    74    2
   107   127   128    1
   108    90    91    1
   109    91    92    1
   110    91    94    1
   111   157   158    1
   112    78    76    1
   113    92    93    2
   114    92   101   am
   115    72    73    1
   116    74    73    1
   117   101   102    1
   118   128   129    2
   119   128   130   am
   120   135   134    1
   121   135   136    1
   122   137   136    2
   123    94    95    1
   124   134   132   am
   125   102   103    1
   126   158   159    1
   127   158   161    1
   128    73    76    1
   129   130   131    1
   130   165   166    2
   131   165   164    1
   132   170   172   ar
   133   170   168   ar
   134    76    77    1
   135   163   159   am
   136   163   164    1
   137   159   160    2
   138   172   173   ar
   139   116   115    2
   140   167   164    1
   141   167   168    1
   142    95    97   ar
   143    95    96   ar
   144    97    99   ar
   145   132   131    1
   146   132   133    2
   147   168   169   ar
   148   161   162    1
   149   103   105   am
   150   103   104    2
   151   105   106    1
   152   173   174    1
   153   173   171   ar
   154   115   117   am
   155   115   114    1
   156    96    98   ar
   157    99   100   ar
   158   169   171   ar
   159   114   113    1
   160   113   110    1
   161    98   100   ar
   162   106   107    1
   163   109   110    1
   164   109   107   am
   165   112   111    2
   166   110   111    1
   167   107   108    2
