@<TRIPOS>MOLECULE
tmp/2flkA00.pdb
 68 62 0 0 0
SMALL
GASTEIGER

@<TRIPOS>ATOM
      1  N         30.7490  -73.2670  -63.3830 N.3    72  ARG72      -0.1245
      2  CA        31.4500  -72.2440  -64.1420 C.3    72  ARG72       0.1563
      3  C         30.6410  -70.9570  -64.2970 C.2    72  ARG72       0.2260
      4  O         31.2020  -69.9100  -64.4950 O.2    72  ARG72      -0.2867
      5  CB        31.8550  -72.7800  -65.5170 C.3    72  ARG72       0.0307
      6  CG        32.9600  -73.8420  -65.4720 C.3    72  ARG72       0.0489
      7  CD        34.3830  -73.2790  -65.4570 C.3    72  ARG72       0.2205
      8  NE        35.3670  -74.3120  -65.2430 N.pl3  72  ARG72      -0.0865
      9  CZ        35.7800  -74.7310  -64.0450 C.cat  72  ARG72       0.5346
     10  NH1       35.3480  -74.1400  -62.9500 N.pl3  72  ARG72       0.1354
     11  NH2       36.6380  -75.7490  -63.9430 N.pl3  72  ARG72       0.1354
     12  N         35.8430  -70.6200  -60.5890 N.3    79  ALA79      -0.1245
     13  CA        37.2160  -71.0320  -60.8230 C.3    79  ALA79       0.1562
     14  C         37.5830  -72.4180  -60.2570 C.2    79  ALA79       0.2260
     15  O         38.7030  -72.8600  -60.4550 O.2    79  ALA79      -0.2867
     16  CB        38.1860  -69.9790  -60.2390 C.3    79  ALA79       0.0290
     17  N         38.5230  -76.0580  -59.7110 N.3    81  PRO81      -0.2116
     18  CA        38.9950  -77.1220  -60.5930 C.3    81  PRO81       0.1372
     19  C         37.9270  -78.2130  -60.6870 C.2    81  PRO81       0.2244
     20  O         37.3300  -78.5760  -59.6750 O.2    81  PRO81      -0.2868
     21  CB        40.2490  -77.6190  -59.8720 C.3    81  PRO81       0.0268
     22  CG        40.6760  -76.5080  -59.0280 C.3    81  PRO81       0.0207
     23  CD        39.4010  -75.8790  -58.5390 C.3    81  PRO81       0.0892
     24  N         35.4450  -79.3790  -73.0650 N.3    98  ALA98      -0.1245
     25  CA        36.3120  -78.2270  -73.2670 C.3    98  ALA98       0.1562
     26  C         35.4760  -76.9570  -73.2850 C.2    98  ALA98       0.2260
     27  O         35.7770  -76.0040  -72.5820 O.2    98  ALA98      -0.2867
     28  CB        37.0820  -78.3650  -74.5680 C.3    98  ALA98       0.0290
     29  N         34.3180  -75.8140  -69.8810 N.3   101  GLY101     -0.1210
     30  CA        35.3530  -75.4470  -68.9350 C.3   101  GLY101      0.1956
     31  C         35.9280  -76.5370  -68.0470 C.2   101  GLY101      0.2612
     32  O         36.4400  -76.2400  -66.9760 O.2   101  GLY101     -0.2717
     33  N         35.8580  -77.7990  -68.4670 N.am  102  ALA102     -0.1965
     34  CA        36.4200  -78.8750  -67.6610 C.3   102  ALA102      0.1728
     35  C         37.9140  -78.6400  -67.4730 C.2   102  ALA102      0.2616
     36  O         38.6160  -78.3340  -68.4450 O.2   102  ALA102     -0.2715
     37  CB        36.2010  -80.2110  -68.3400 C.3   102  ALA102      0.0334
     38  N         38.4080  -78.7980  -66.2410 N.am  103  SER103     -0.1950
     39  CA        39.8430  -78.6300  -65.9580 C.3   103  SER103      0.1924
     40  C         40.6030  -79.8400  -66.4710 C.2   103  SER103      0.2314
     41  O         41.7380  -79.7360  -66.9340 O.2   103  SER103     -0.2863
     42  CB        40.0980  -78.4570  -64.4600 C.3   103  SER103      0.2116
     43  OG        39.2890  -77.4290  -63.9020 O.3   103  SER103     -0.2180
     44  N         46.4930  -80.2100  -63.6320 N.3   122  ILE122     -0.1245
     45  CA        45.5690  -79.1330  -63.2970 C.3   122  ILE122      0.1561
     46  C         46.1910  -78.1540  -62.2870 C.2   122  ILE122      0.2260
     47  O         46.0990  -76.9290  -62.4600 O.2   122  ILE122     -0.2867
     48  CB        44.2520  -79.7140  -62.7610 C.3   122  ILE122      0.0252
     49  CG1       43.5370  -80.4810  -63.8870 C.3   122  ILE122      0.0019
     50  CG2       43.3540  -78.6040  -62.2060 C.3   122  ILE122      0.0019
     51  CD1       42.3480  -81.3130  -63.4120 C.3   122  ILE122      0.0001
     52  N         48.7030  -75.9700  -64.1020 N.3   125  LYS125     -0.1231
     53  CA        48.0150  -75.0140  -64.9530 C.3   125  LYS125      0.1693
     54  C         47.4670  -73.8480  -64.1270 C.2   125  LYS125      0.2591
     55  O         47.5680  -72.6870  -64.5360 O.2   125  LYS125     -0.2718
     56  CB        46.8750  -75.7350  -65.6810 C.3   125  LYS125      0.0285
     57  CG        46.1840  -74.9660  -66.8000 C.3   125  LYS125      0.0035
     58  CD        45.0300  -74.1010  -66.3160 C.3   125  LYS125      0.0206
     59  CE        44.1030  -73.6880  -67.5040 C.3   125  LYS125      0.1093
     60  NZ        43.3850  -72.3990  -67.2430 N.3   125  LYS125     -0.1314
     61  N         46.8950  -74.1600  -62.9660 N.am  126  LEU126     -0.1980
     62  CA        46.2880  -73.1560  -62.0970 C.3   126  LEU126      0.1596
     63  C         47.2380  -72.5440  -61.0630 C.2   126  LEU126      0.2287
     64  O         46.8130  -71.7610  -60.2210 O.2   126  LEU126     -0.2864
     65  CB        45.0870  -73.7650  -61.3650 C.3   126  LEU126      0.0297
     66  CG        43.9670  -74.2940  -62.2630 C.3   126  LEU126      0.0022
     67  CD1       42.8130  -74.8330  -61.4290 C.3   126  LEU126      0.0001
     68  CD2       43.4710  -73.1980  -63.2090 C.3   126  LEU126      0.0001
@<TRIPOS>BOND
     1    28    25    1
     2    26    25    1
     3    26    27    2
     4    25    24    1
     5    29    30    1
     6    30    31    1
     7    33    31   am
     8    33    34    1
     9    36    35    2
    10    37    34    1
    11    31    32    2
    12    34    35    1
    13    59    60    1
    14    59    58    1
    15    35    38   am
    16    41    40    2
    17    57    58    1
    18    57    56    1
    19    40    39    1
    20    38    39    1
    21    39    42    1
    22    56    53    1
    23     5     6    1
    24     5     2    1
    25     6     7    1
    26     7     8    1
    27     8     9    2
    28    53    54    1
    29    53    52    1
    30    55    54    2
    31     4     3    2
    32    42    43    1
    33     3     2    1
    34     2     1    1
    35    54    61   am
    36     9    11    1
    37     9    10    1
    38    49    51    1
    39    49    48    1
    40    44    45    1
    41    45    48    1
    42    45    46    1
    43    68    66    1
    44    61    62    1
    45    48    50    1
    46    47    46    2
    47    66    67    1
    48    66    65    1
    49    62    65    1
    50    62    63    1
    51    63    64    2
    52    13    12    1
    53    13    14    1
    54    13    16    1
    55    19    18    1
    56    19    20    2
    57    18    21    1
    58    18    17    1
    59    15    14    2
    60    21    22    1
    61    17    23    1
    62    22    23    1
