@<TRIPOS>MOLECULE
tmp/2flmA00.pdb
 75 70 0 0 0
SMALL
GASTEIGER

@<TRIPOS>ATOM
      1  N         22.2120   34.9450   36.0000 N.3     6  LYS6       -0.1245
      2  CA        23.2250   35.9860   35.9260 C.3     6  LYS6        0.1561
      3  C         23.8310   36.2200   37.3230 C.2     6  LYS6        0.2260
      4  O         23.0960   36.2610   38.2990 O.2     6  LYS6       -0.2867
      5  CB        22.6520   37.2980   35.4390 C.3     6  LYS6        0.0271
      6  CG        21.4330   37.8650   35.8950 C.3     6  LYS6        0.0035
      7  CD        20.7430   38.4350   34.5820 C.3     6  LYS6        0.0206
      8  CE        20.2350   39.8340   34.5380 C.3     6  LYS6        0.1093
      9  NZ        19.8860   40.2280   33.0790 N.3     6  LYS6       -0.1314
     10  N         26.8000   38.3810   39.6420 N.3     8  LEU8       -0.1245
     11  CA        27.7740   39.5330   39.7940 C.3     8  LEU8        0.1561
     12  C         28.6720   39.2910   41.0030 C.2     8  LEU8        0.2260
     13  O         28.2650   38.6420   41.9370 O.2     8  LEU8       -0.2867
     14  CB        27.0000   40.8190   39.9860 C.3     8  LEU8        0.0270
     15  CG        26.1830   41.2580   38.7490 C.3     8  LEU8        0.0019
     16  CD1       25.4360   42.6130   39.0190 C.3     8  LEU8        0.0001
     17  CD2       27.0910   41.3510   37.5130 C.3     8  LEU8        0.0001
     18  N         26.6300   35.7490   32.5930 N.3    45  GLU45      -0.1245
     19  CA        25.3550   35.1440   32.2310 C.3    45  GLU45       0.1567
     20  C         25.4970   33.6840   31.7520 C.2    45  GLU45       0.2260
     21  O         26.5140   33.2220   31.1690 O.2    45  GLU45      -0.2867
     22  CB        24.6300   35.9790   31.1600 C.3    45  GLU45       0.0388
     23  CG        24.4510   37.3780   31.6120 C.3    45  GLU45       0.1160
     24  CD        23.5570   38.2520   30.8270 C.2    45  GLU45       0.3649
     25  OE1       23.3120   39.3670   31.3950 O.co2  45  GLU45      -0.2457
     26  OE2       23.1390   37.8490   29.7320 O.co2  45  GLU45      -0.2457
     27  N         19.0320   35.9110   39.3700 N.3    99  ALA99      -0.1231
     28  CA        20.1050   36.8850   39.4440 C.3    99  ALA99       0.1694
     29  C         20.7660   36.6700   40.8360 C.2    99  ALA99       0.2592
     30  O         20.0580   36.5060   41.8440 O.2    99  ALA99      -0.2718
     31  CB        19.6070   38.2500   39.2900 C.3    99  ALA99       0.0304
     32  N         22.0780   36.6660   40.8990 N.am  100  ALA100     -0.1966
     33  CA        22.7630   36.5180   42.1830 C.3   100  ALA100      0.1728
     34  C         23.8900   37.5270   42.2890 C.2   100  ALA100      0.2616
     35  O         24.4910   37.8950   41.3030 O.2   100  ALA100     -0.2715
     36  CB        23.2940   35.1590   42.3580 C.3   100  ALA100      0.0334
     37  N         24.1390   37.9500   43.5330 N.am  101  LEU101     -0.1977
     38  CA        25.2290   38.8460   43.8790 C.3   101  LEU101      0.1596
     39  C         26.0440   38.1270   44.9760 C.2   101  LEU101      0.2287
     40  O         25.4830   37.7470   45.9620 O.2   101  LEU101     -0.2864
     41  CB        24.6870   40.1780   44.4540 C.3   101  LEU101      0.0297
     42  CG        25.7610   41.1920   44.8850 C.3   101  LEU101      0.0022
     43  CD1       26.6450   41.5830   43.6900 C.3   101  LEU101      0.0001
     44  CD2       25.0500   42.3580   45.5440 C.3   101  LEU101      0.0001
     45  N         28.4640   36.4380   51.9630 N.3   106  SER106     -0.1202
     46  CA        27.0780   36.8830   51.7540 C.3   106  SER106      0.2020
     47  C         26.6780   36.5580   50.3290 C.2   106  SER106      0.2619
     48  O         27.4400   36.7500   49.4340 O.2   106  SER106     -0.2717
     49  CB        26.8640   38.3700   51.9810 C.3   106  SER106      0.2103
     50  OG        25.5440   38.8240   51.7750 O.3   106  SER106     -0.2182
     51  N         25.4850   36.0670   50.1330 N.am  107  TYR107     -0.1961
     52  CA        25.0310   36.1390   48.7420 C.3   107  TYR107      0.1771
     53  C         23.5620   36.4310   48.7320 C.2   107  TYR107      0.2620
     54  O         22.8390   36.2850   49.7240 O.2   107  TYR107     -0.2715
     55  CB        25.2580   34.8990   47.9620 C.3   107  TYR107      0.0574
     56  CG        24.4390   33.7900   48.5920 C.ar  107  TYR107     -0.0198
     57  CD1       23.1540   33.4960   48.1280 C.ar  107  TYR107     -0.0009
     58  CD2       24.9550   33.0940   49.5970 C.ar  107  TYR107     -0.0009
     59  CE1       22.4230   32.5110   48.6870 C.ar  107  TYR107      0.0417
     60  CE2       24.2610   32.0930   50.1930 C.ar  107  TYR107      0.0417
     61  CZ        23.0020   31.7810   49.7630 C.ar  107  TYR107      0.1957
     62  OH        22.3460   30.7340   50.4290 O.3   107  TYR107     -0.2866
     63  N         23.1460   36.8460   47.5760 N.am  108  SER108     -0.1950
     64  CA        21.7700   37.2500   47.4450 C.3   108  SER108      0.1924
     65  C         21.2930   36.7340   46.1130 C.2   108  SER108      0.2314
     66  O         22.0530   36.7100   45.1770 O.2   108  SER108     -0.2863
     67  CB        21.7440   38.7450   47.6260 C.3   108  SER108      0.2116
     68  OG        22.2340   39.0730   48.9570 O.3   108  SER108     -0.2180
     69  N         17.7490   36.9240   43.4720 N.3   110  THR110     -0.1218
     70  CA        16.4130   37.4340   43.1760 C.3   110  THR110      0.1862
     71  C         15.9370   36.7660   41.8820 C.2   110  THR110      0.2287
     72  O         16.7470   36.3770   41.0690 O.2   110  THR110     -0.2866
     73  CB        16.5460   38.9630   42.8550 C.3   110  THR110      0.1770
     74  OG1       17.2480   39.6110   43.9080 O.3   110  THR110     -0.2211
     75  CG2       15.1810   39.5970   42.6590 C.3   110  THR110      0.0375
@<TRIPOS>BOND
     1    26    24   ar
     2    24    25   ar
     3    24    23    1
     4    22    23    1
     5    22    19    1
     6    21    20    2
     7    20    19    1
     8    19    18    1
     9     9     8    1
    10     8     7    1
    11     7     6    1
    12     5     6    1
    13     5     2    1
    14     2     1    1
    15     2     3    1
    16     3     4    2
    17    17    15    1
    18    15    16    1
    19    15    14    1
    20    31    28    1
    21    27    28    1
    22    28    29    1
    23    10    11    1
    24    11    14    1
    25    11    12    1
    26    29    32   am
    27    29    30    2
    28    32    33    1
    29    12    13    2
    30    72    71    2
    31    35    34    2
    32    71    70    1
    33    33    34    1
    34    33    36    1
    35    34    37   am
    36    75    73    1
    37    73    70    1
    38    73    74    1
    39    70    69    1
    40    37    38    1
    41    43    42    1
    42    38    41    1
    43    38    39    1
    44    41    42    1
    45    42    44    1
    46    39    40    2
    47    66    65    2
    48    65    64    1
    49    64    63    1
    50    64    67    1
    51    63    53   am
    52    67    68    1
    53    55    56    1
    54    55    52    1
    55    57    56   ar
    56    57    59   ar
    57    56    58   ar
    58    59    61   ar
    59    53    52    1
    60    53    54    2
    61    52    51    1
    62    48    47    2
    63    58    60   ar
    64    61    60   ar
    65    61    62    1
    66    51    47   am
    67    47    46    1
    68    46    45    1
    69    46    49    1
    70    50    49    1
