@<TRIPOS>MOLECULE
tmp/2flqA00.pdb
 119 118 0 0 0
SMALL
GASTEIGER

@<TRIPOS>ATOM
      1  N         81.8660   32.7570    0.3850 N.3   125  HIS125     -0.1226
      2  CA        80.8500   32.8470    1.4330 C.3   125  HIS125      0.1752
      3  C         81.4880   32.0600    2.5440 C.2   125  HIS125      0.2595
      4  O         81.6760   32.5570    3.6520 O.2   125  HIS125     -0.2718
      5  CB        79.5540   32.1570    1.0190 C.3   125  HIS125      0.0759
      6  CG        78.5170   32.1300    2.1020 C.ar  125  HIS125      0.0818
      7  ND1       77.9800   33.2750    2.6530 N.ar  125  HIS125     -0.2268
      8  CD2       77.8990   31.0930    2.7170 C.ar  125  HIS125      0.1154
      9  CE1       77.0740   32.9470    3.5550 C.ar  125  HIS125      0.1986
     10  NE2       77.0040   31.6290    3.6160 N.ar  125  HIS125     -0.2212
     11  N         81.8260   30.8140    2.2270 N.am  126  GLN126     -0.1979
     12  CA        82.4930   29.9530    3.1780 C.3   126  GLN126      0.1601
     13  C         83.7920   29.4720    2.5630 C.2   126  GLN126      0.2287
     14  O         83.8580   29.1870    1.3660 O.2   126  GLN126     -0.2864
     15  CB        81.5970   28.7820    3.5560 C.3   126  GLN126      0.0394
     16  CG        80.5950   29.1360    4.6420 C.3   126  GLN126      0.0908
     17  CD        79.6620   27.9900    4.9540 C.2   126  GLN126      0.2608
     18  OE1       80.0930   26.8540    5.1420 O.2   126  GLN126     -0.2717
     19  NE2       78.3740   28.2860    5.0170 N.am  126  GLN126     -0.0878
     20  N         83.4640   24.9850    0.7760 N.3   129  ARG129     -0.1245
     21  CA        82.1120   25.0880    0.2490 C.3   129  ARG129      0.1563
     22  C         82.0620   24.2880   -1.0460 C.2   129  ARG129      0.2260
     23  O         83.0500   24.2340   -1.7740 O.2   129  ARG129     -0.2867
     24  CB        81.7760   26.5600   -0.0390 C.3   129  ARG129      0.0307
     25  CG        80.3090   26.8260   -0.3730 C.3   129  ARG129      0.0489
     26  CD        79.4600   26.8260    0.8780 C.3   129  ARG129      0.2205
     27  NE        78.0330   26.9170    0.5860 N.pl3 129  ARG129     -0.0865
     28  CZ        77.0810   26.7460    1.4970 C.cat 129  ARG129      0.5346
     29  NH1       77.4080   26.4820    2.7520 N.pl3 129  ARG129      0.1354
     30  NH2       75.8060   26.8220    1.1560 N.pl3 129  ARG129      0.1354
     31  N         82.2100   24.9300    8.9960 N.3   212  PRO212     -0.2116
     32  CA        81.6130   25.9550    8.1460 C.3   212  PRO212      0.1372
     33  C         82.2830   27.2960    8.4430 C.2   212  PRO212      0.2244
     34  O         81.8700   28.0090    9.3570 O.2   212  PRO212     -0.2868
     35  CB        80.1590   25.9430    8.5810 C.3   212  PRO212      0.0268
     36  CG        80.2850   25.7370   10.0540 C.3   212  PRO212      0.0207
     37  CD        81.3310   24.6390   10.1460 C.3   212  PRO212      0.0892
     38  N         82.3410   30.6500    7.5870 N.3   214  ILE214     -0.1245
     39  CA        81.6710   31.7790    6.9480 C.3   214  ILE214      0.1561
     40  C         82.7010   32.8840    6.8100 C.2   214  ILE214      0.2260
     41  O         83.5070   33.0670    7.7050 O.2   214  ILE214     -0.2867
     42  CB        80.4930   32.2490    7.8290 C.3   214  ILE214      0.0252
     43  CG1       79.4280   31.1430    7.8800 C.3   214  ILE214      0.0019
     44  CG2       79.9260   33.5500    7.3060 C.3   214  ILE214      0.0019
     45  CD1       78.2660   31.4310    8.8090 C.3   214  ILE214      0.0001
     46  N         85.2540   33.4330   10.3490 N.3   231  PHE231     -0.1227
     47  CA        84.8850   32.9380   11.6610 C.3   231  PHE231      0.1736
     48  C         84.1590   31.6140   11.4940 C.2   231  PHE231      0.2595
     49  O         83.6280   31.3140   10.4220 O.2   231  PHE231     -0.2718
     50  CB        84.0230   33.9570   12.4200 C.3   231  PHE231      0.0547
     51  CG        82.6810   34.2200   11.8060 C.ar  231  PHE231     -0.0202
     52  CD1       81.7340   33.2140   11.6900 C.ar  231  PHE231     -0.0042
     53  CD2       82.3360   35.4980   11.3970 C.ar  231  PHE231     -0.0042
     54  CE1       80.4660   33.4780   11.1820 C.ar  231  PHE231     -0.0003
     55  CE2       81.0680   35.7680   10.8880 C.ar  231  PHE231     -0.0003
     56  CZ        80.1330   34.7570   10.7820 C.ar  231  PHE231     -0.0000
     57  N         84.1340   30.8070   12.5530 N.am  232  ASN232     -0.1960
     58  CA        83.4790   29.5150   12.4650 C.3   232  ASN232      0.1819
     59  C         83.2090   28.9330   13.8270 C.2   232  ASN232      0.2622
     60  O         83.9440   29.1830   14.7750 O.2   232  ASN232     -0.2715
     61  CB        84.3750   28.5300   11.7450 C.3   232  ASN232      0.1195
     62  CG        85.5570   28.1430   12.5910 C.2   232  ASN232      0.2630
     63  OD1       86.4330   28.9620   12.8590 O.2   232  ASN232     -0.2716
     64  ND2       85.5720   26.8980   13.0500 N.am  232  ASN232     -0.0877
     65  N         82.1560   28.1380   13.9130 N.am  233  GLY233     -0.1940
     66  CA        81.8370   27.4640   15.1520 C.3   233  GLY233      0.2014
     67  C         81.7530   26.0310   14.6940 C.2   233  GLY233      0.2639
     68  O         82.5780   25.6010   13.8960 O.2   233  GLY233     -0.2714
     69  N         80.7760   25.2810   15.1840 N.am  234  TRP234     -0.1959
     70  CA        80.6060   23.9100   14.7310 C.3   234  TRP234      0.1771
     71  C         79.1630   23.7330   14.2720 C.2   234  TRP234      0.2620
     72  O         78.2450   24.3680   14.7870 O.2   234  TRP234     -0.2715
     73  CB        81.0020   22.8900   15.8230 C.3   234  TRP234      0.0590
     74  CG        80.4060   23.0910   17.1780 C.ar  234  TRP234      0.0006
     75  CD1       79.1230   22.8230   17.5660 C.ar  234  TRP234      0.0946
     76  CD2       81.0840   23.5850   18.3430 C.ar  234  TRP234      0.0152
     77  NE1       78.9560   23.1160   18.8990 N.ar  234  TRP234     -0.2442
     78  CE2       80.1450   23.5870   19.4000 C.ar  234  TRP234      0.0810
     79  CE3       82.3890   24.0250   18.5960 C.ar  234  TRP234      0.0012
     80  CZ2       80.4760   24.0170   20.6960 C.ar  234  TRP234      0.0191
     81  CZ3       82.7190   24.4520   19.8890 C.ar  234  TRP234      0.0001
     82  CH2       81.7640   24.4430   20.9180 C.ar  234  TRP234      0.0015
     83  N         78.9840   22.8890   13.2690 N.am  235  TYR235     -0.1960
     84  CA        77.6770   22.6190   12.6850 C.3   235  TYR235      0.1771
     85  C         76.6110   22.0740   13.6300 C.2   235  TYR235      0.2619
     86  O         76.9200   21.5510   14.6990 O.2   235  TYR235     -0.2715
     87  CB        77.8640   21.6630   11.5180 C.3   235  TYR235      0.0574
     88  CG        77.8850   22.3340   10.1720 C.ar  235  TYR235     -0.0198
     89  CD1       78.7380   21.8860    9.1680 C.ar  235  TYR235     -0.0009
     90  CD2       76.9760   23.3430    9.8580 C.ar  235  TYR235     -0.0009
     91  CE1       78.6700   22.4000    7.8790 C.ar  235  TYR235      0.0417
     92  CE2       76.8970   23.8660    8.5660 C.ar  235  TYR235      0.0417
     93  CZ        77.7480   23.3880    7.5870 C.ar  235  TYR235      0.1957
     94  OH        77.6320   23.8330    6.2980 O.3   235  TYR235     -0.2866
     95  N         75.3520   22.2140   13.2180 N.am  236  MET236     -0.1977
     96  CA        74.1990   21.7240   13.9780 C.3   236  MET236      0.1605
     97  C         73.3910   20.8010   13.0740 C.2   236  MET236      0.2287
     98  O         72.7550   21.2620   12.1400 O.2   236  MET236     -0.2864
     99  CB        73.3220   22.8990   14.4500 C.3   236  MET236      0.0413
    100  CG        71.9600   22.4950   15.0480 C.3   236  MET236      0.0598
    101  SD        71.0380   23.8190   15.9290 S.3   236  MET236     -0.1393
    102  CE        70.5640   24.8720   14.6000 C.3   236  MET236      0.0692
    103  N         71.2470   21.8750   10.2820 N.3   239  GLU239     -0.1245
    104  CA        71.8560   22.6790    9.2320 C.3   239  GLU239      0.1567
    105  C         72.1020   21.8610    7.9720 C.2   239  GLU239      0.2260
    106  O         71.6440   22.2120    6.8820 O.2   239  GLU239     -0.2867
    107  CB        73.1880   23.2710    9.7090 C.3   239  GLU239      0.0388
    108  CG        73.0320   24.5060   10.5670 C.3   239  GLU239      0.1160
    109  CD        74.3440   25.2170   10.8410 C.2   239  GLU239      0.3649
    110  OE1       74.9330   25.7990    9.9160 O.co2 239  GLU239     -0.2457
    111  OE2       74.7930   25.2050   11.9950 O.co2 239  GLU239     -0.2457
    112  N         70.6950   22.0420    3.9220 N.3   244  ASN244     -0.1240
    113  CA        71.6190   21.7070    2.8550 C.3   244  ASN244      0.1653
    114  C         71.2380   20.4460    2.1060 C.2   244  ASN244      0.2266
    115  O         71.3340   20.4000    0.8880 O.2   244  ASN244     -0.2867
    116  CB        73.0150   21.5460    3.4280 C.3   244  ASN244      0.1155
    117  CG        73.5310   22.8200    4.0310 C.2   244  ASN244      0.2627
    118  OD1       73.3890   23.8900    3.4390 O.2   244  ASN244     -0.2716
    119  ND2       74.1370   22.7210    5.2040 N.am  244  ASN244     -0.0877
@<TRIPOS>BOND
     1    23    22    2
     2    22    21    1
     3    25    24    1
     4    25    26    1
     5    24    21    1
     6    21    20    1
     7     1     2    1
     8    27    26    1
     9    27    28    2
    10   115   114    2
    11     5     2    1
    12     5     6    1
    13    30    28    1
    14    14    13    2
    15     2     3    1
    16    28    29    1
    17     6     7   ar
    18     6     8   ar
    19   114   113    1
    20    11     3   am
    21    11    12    1
    22     3     4    2
    23    13    12    1
    24     7     9   ar
    25     8    10   ar
    26   113   116    1
    27   113   112    1
    28    12    15    1
    29   116   117    1
    30   118   117    2
    31     9    10   ar
    32    15    16    1
    33   117   119   am
    34    16    17    1
    35    17    19   am
    36    17    18    2
    37    94    93    1
    38    40    39    1
    39    40    41    2
    40   106   105    2
    41    39    38    1
    42    39    42    1
    43    44    42    1
    44    93    91   ar
    45    93    92   ar
    46    42    43    1
    47    91    89   ar
    48    43    45    1
    49   105   104    1
    50    32    33    1
    51    32    35    1
    52    32    31    1
    53    33    34    2
    54    92    90   ar
    55    35    36    1
    56    31    37    1
    57    89    88   ar
    58   104   107    1
    59   104   103    1
    60   107   108    1
    61    90    88   ar
    62   110   109   ar
    63    36    37    1
    64    88    87    1
    65    46    47    1
    66    49    48    2
    67   108   109    1
    68    56    55   ar
    69    56    54   ar
    70   109   111   ar
    71    55    53   ar
    72    54    52   ar
    73    53    51   ar
    74    48    47    1
    75    48    57   am
    76    87    84    1
    77    47    50    1
    78    52    51   ar
    79    61    58    1
    80    61    62    1
    81    51    50    1
    82    98    97    2
    83    58    57    1
    84    58    59    1
    85    62    63    2
    86    62    64   am
    87    84    83    1
    88    84    85    1
    89    97    96    1
    90    95    85   am
    91    95    96    1
    92    83    71   am
    93    85    86    2
    94    59    65   am
    95    59    60    2
    96    68    67    2
    97    65    66    1
    98    96    99    1
    99    71    70    1
   100    71    72    2
   101    99   100    1
   102   102   101    1
   103    67    66    1
   104    67    69   am
   105    70    69    1
   106    70    73    1
   107   100   101    1
   108    73    74    1
   109    74    75   ar
   110    74    76   ar
   111    75    77   ar
   112    76    79   ar
   113    76    78   ar
   114    79    81   ar
   115    77    78   ar
   116    78    80   ar
   117    81    82   ar
   118    80    82   ar
