@<TRIPOS>MOLECULE
tmp/2flqA01.pdb
 252 246 0 0 0
SMALL
GASTEIGER

@<TRIPOS>ATOM
      1  N         80.0220   38.3580   18.2860 N.3    61  TRP61      -0.1241
      2  CA        79.3990   37.0460   18.2410 C.3    61  TRP61       0.1605
      3  C         78.2950   37.0140   19.2760 C.2    61  TRP61       0.2264
      4  O         77.2330   36.4310   19.0530 O.2    61  TRP61      -0.2867
      5  CB        80.4310   35.9550   18.5370 C.3    61  TRP61       0.0550
      6  CG        79.8460   34.5740   18.5790 C.ar   61  TRP61       0.0003
      7  CD1       78.5660   34.2030   18.2490 C.ar   61  TRP61       0.0946
      8  CD2       80.5090   33.3790   19.0000 C.ar   61  TRP61       0.0152
      9  NE1       78.3940   32.8560   18.4470 N.ar   61  TRP61      -0.2442
     10  CE2       79.5690   32.3210   18.9080 C.ar   61  TRP61       0.0810
     11  CE3       81.8020   33.0930   19.4450 C.ar   61  TRP61       0.0012
     12  CZ2       79.8880   31.0060   19.2480 C.ar   61  TRP61       0.0191
     13  CZ3       82.1170   31.7860   19.7810 C.ar   61  TRP61       0.0001
     14  CH2       81.1610   30.7570   19.6790 C.ar   61  TRP61       0.0015
     15  N         75.1830   38.6290   17.9040 N.3    64  SER64      -0.1217
     16  CA        74.6230   38.0670   16.6710 C.3    64  SER64       0.1889
     17  C         73.2090   37.5110   16.8810 C.2    64  SER64       0.2288
     18  O         73.0370   36.3580   17.2790 O.2    64  SER64      -0.2866
     19  CB        75.5380   36.9660   16.1480 C.3    64  SER64       0.2089
     20  OG        76.8150   37.4970   15.8460 O.3    64  SER64      -0.2183
     21  N         70.8980   36.3950   14.9490 N.3    66  ARG66      -0.1231
     22  CA        70.5280   35.1750   14.2440 C.3    66  ARG66       0.1694
     23  C         71.2710   33.9090   14.6330 C.2    66  ARG66       0.2592
     24  O         71.1480   32.8890   13.9570 O.2    66  ARG66      -0.2718
     25  CB        70.6440   35.4010   12.7370 C.3    66  ARG66       0.0321
     26  CG        69.6080   36.3680   12.2180 C.3    66  ARG66       0.0489
     27  CD        69.7300   36.6150   10.7370 C.3    66  ARG66       0.2205
     28  NE        68.5400   37.2970   10.2410 N.pl3  66  ARG66      -0.0865
     29  CZ        68.3890   37.7630    9.0040 C.cat  66  ARG66       0.5346
     30  NH1       69.3630   37.6310    8.1120 N.pl3  66  ARG66       0.1354
     31  NH2       67.2550   38.3680    8.6620 N.pl3  66  ARG66       0.1354
     32  N         72.0180   33.9590   15.7270 N.am   67  CYS67      -0.1956
     33  CA        72.7530   32.7820   16.1560 C.3    67  CYS67       0.1843
     34  C         72.1870   32.1360   17.4040 C.2    67  CYS67       0.2625
     35  O         71.9190   32.8080   18.4030 O.2    67  CYS67      -0.2714
     36  CB        74.2080   33.1240   16.4010 C.3    67  CYS67       0.0997
     37  SG        75.1040   31.7410   17.0690 S.3    67  CYS67      -0.0797
     38  N         72.0270   30.8180   17.3450 N.am   68  ILE68      -0.1963
     39  CA        71.4810   30.0710   18.4590 C.3    68  ILE68       0.1727
     40  C         72.5560   29.6130   19.4310 C.2    68  ILE68       0.2616
     41  O         72.2980   29.4750   20.6200 O.2    68  ILE68      -0.2715
     42  CB        70.7270   28.8290   17.9710 C.3    68  ILE68       0.0290
     43  CG1       69.9340   28.2210   19.1360 C.3    68  ILE68       0.0022
     44  CG2       71.7210   27.8220   17.4000 C.3    68  ILE68       0.0023
     45  CD1       69.0490   27.0290   18.7800 C.3    68  ILE68       0.0001
     46  N         73.7540   29.3610   18.9290 N.am   69  GLY69      -0.1955
     47  CA        74.8120   28.9000   19.8050 C.3    69  GLY69       0.1869
     48  C         75.7150   30.0090   20.2880 C.2    69  GLY69       0.2309
     49  O         76.9110   29.9720   20.0370 O.2    69  GLY69      -0.2863
     50  N         78.8770   29.9020   24.1140 N.3    72  PHE72      -0.1241
     51  CA        80.3360   29.9230   24.1140 C.3    72  PHE72       0.1605
     52  C         80.9700   31.1310   23.4500 C.2    72  PHE72       0.2264
     53  O         82.0360   31.0120   22.8400 O.2    72  PHE72      -0.2867
     54  CB        80.8490   28.6700   23.4110 C.3    72  PHE72       0.0534
     55  CG        79.9930   27.4640   23.6310 C.ar   72  PHE72      -0.0203
     56  CD1       80.1930   26.6440   24.7400 C.ar   72  PHE72      -0.0042
     57  CD2       78.9760   27.1520   22.7300 C.ar   72  PHE72      -0.0042
     58  CE1       79.4000   25.5300   24.9490 C.ar   72  PHE72      -0.0003
     59  CE2       78.1740   26.0410   22.9270 C.ar   72  PHE72      -0.0003
     60  CZ        78.3890   25.2230   24.0430 C.ar   72  PHE72      -0.0000
     61  N         86.0310   32.2730   22.1740 N.3    76  LEU76      -0.1245
     62  CA        86.4520   32.4620   20.7880 C.3    76  LEU76       0.1561
     63  C         87.9650   32.6930   20.6280 C.2    76  LEU76       0.2260
     64  O         88.5240   33.6040   21.2400 O.2    76  LEU76      -0.2867
     65  CB        85.6840   33.6420   20.1750 C.3    76  LEU76       0.0270
     66  CG        85.9320   33.8950   18.6840 C.3    76  LEU76       0.0019
     67  CD1       85.3590   32.7460   17.8910 C.3    76  LEU76       0.0001
     68  CD2       85.3110   35.1990   18.2370 C.3    76  LEU76       0.0001
     69  N         86.1860   27.1130   17.8420 N.3   109  PRO109     -0.2116
     70  CA        85.4760   28.2950   17.3450 C.3   109  PRO109      0.1372
     71  C         86.5210   29.3900   17.2210 C.2   109  PRO109      0.2244
     72  O         87.0090   29.8870   18.2340 O.2   109  PRO109     -0.2868
     73  CB        84.4750   28.5960   18.4530 C.3   109  PRO109      0.0268
     74  CG        84.3120   27.2610   19.1600 C.3   109  PRO109      0.0207
     75  CD        85.7270   26.7470   19.1880 C.3   109  PRO109      0.0892
     76  N         88.0940   33.0660   15.0030 N.3   111  ILE111     -0.1245
     77  CA        87.9570   34.1890   14.0850 C.3   111  ILE111      0.1561
     78  C         89.3250   34.7690   13.7990 C.2   111  ILE111      0.2260
     79  O         90.1560   34.8890   14.6950 O.2   111  ILE111     -0.2867
     80  CB        87.1170   35.3170   14.6690 C.3   111  ILE111      0.0252
     81  CG1       87.0210   36.4630   13.6550 C.3   111  ILE111      0.0019
     82  CG2       87.7570   35.8200   15.9560 C.3   111  ILE111      0.0019
     83  CD1       86.0910   37.5800   14.0770 C.3   111  ILE111      0.0001
     84  N         81.8660   32.7570    0.3850 N.3   125  HIS125     -0.1241
     85  CA        80.8500   32.8470    1.4330 C.3   125  HIS125      0.1621
     86  C         81.4880   32.0600    2.5440 C.2   125  HIS125      0.2264
     87  O         81.6760   32.5570    3.6520 O.2   125  HIS125     -0.2867
     88  CB        79.5540   32.1570    1.0190 C.3   125  HIS125      0.0745
     89  CG        78.5170   32.1300    2.1020 C.ar  125  HIS125      0.0817
     90  ND1       77.9800   33.2750    2.6530 N.ar  125  HIS125     -0.2268
     91  CD2       77.8990   31.0930    2.7170 C.ar  125  HIS125      0.1154
     92  CE1       77.0740   32.9470    3.5550 C.ar  125  HIS125      0.1986
     93  NE2       77.0040   31.6290    3.6160 N.ar  125  HIS125     -0.2212
     94  N         82.3410   30.6500    7.5870 N.3   214  ILE214     -0.1245
     95  CA        81.6710   31.7790    6.9480 C.3   214  ILE214      0.1561
     96  C         82.7010   32.8840    6.8100 C.2   214  ILE214      0.2260
     97  O         83.5070   33.0670    7.7050 O.2   214  ILE214     -0.2867
     98  CB        80.4930   32.2490    7.8290 C.3   214  ILE214      0.0252
     99  CG1       79.4280   31.1430    7.8800 C.3   214  ILE214      0.0019
    100  CG2       79.9260   33.5500    7.3060 C.3   214  ILE214      0.0019
    101  CD1       78.2660   31.4310    8.8090 C.3   214  ILE214      0.0001
    102  N         81.4430   37.9700    5.2570 N.3   217  MET217     -0.1245
    103  CA        80.8450   38.9360    6.1560 C.3   217  MET217      0.1570
    104  C         81.8390   39.9310    6.7090 C.2   217  MET217      0.2261
    105  O         82.9950   39.5990    6.9330 O.2   217  MET217     -0.2867
    106  CB        80.1270   38.2200    7.3040 C.3   217  MET217      0.0387
    107  CG        78.7990   37.5910    6.8930 C.3   217  MET217      0.0595
    108  SD        77.8510   36.9360    8.2520 S.3   217  MET217     -0.1393
    109  CE        76.8300   38.3650    8.6630 C.3   217  MET217      0.0692
    110  N         85.2540   33.4330   10.3490 N.3   231  PHE231     -0.1227
    111  CA        84.8850   32.9380   11.6610 C.3   231  PHE231      0.1736
    112  C         84.1590   31.6140   11.4940 C.2   231  PHE231      0.2595
    113  O         83.6280   31.3140   10.4220 O.2   231  PHE231     -0.2718
    114  CB        84.0230   33.9570   12.4200 C.3   231  PHE231      0.0547
    115  CG        82.6810   34.2200   11.8060 C.ar  231  PHE231     -0.0202
    116  CD1       81.7340   33.2140   11.6900 C.ar  231  PHE231     -0.0042
    117  CD2       82.3360   35.4980   11.3970 C.ar  231  PHE231     -0.0042
    118  CE1       80.4660   33.4780   11.1820 C.ar  231  PHE231     -0.0003
    119  CE2       81.0680   35.7680   10.8880 C.ar  231  PHE231     -0.0003
    120  CZ        80.1330   34.7570   10.7820 C.ar  231  PHE231     -0.0000
    121  N         84.1340   30.8070   12.5530 N.am  232  ASN232     -0.1960
    122  CA        83.4790   29.5150   12.4650 C.3   232  ASN232      0.1819
    123  C         83.2090   28.9330   13.8270 C.2   232  ASN232      0.2622
    124  O         83.9440   29.1830   14.7750 O.2   232  ASN232     -0.2715
    125  CB        84.3750   28.5300   11.7450 C.3   232  ASN232      0.1195
    126  CG        85.5570   28.1430   12.5910 C.2   232  ASN232      0.2630
    127  OD1       86.4330   28.9620   12.8590 O.2   232  ASN232     -0.2716
    128  ND2       85.5720   26.8980   13.0500 N.am  232  ASN232     -0.0877
    129  N         82.1560   28.1380   13.9130 N.am  233  GLY233     -0.1940
    130  CA        81.8370   27.4640   15.1520 C.3   233  GLY233      0.2014
    131  C         81.7530   26.0310   14.6940 C.2   233  GLY233      0.2639
    132  O         82.5780   25.6010   13.8960 O.2   233  GLY233     -0.2714
    133  N         80.7760   25.2810   15.1840 N.am  234  TRP234     -0.1959
    134  CA        80.6060   23.9100   14.7310 C.3   234  TRP234      0.1771
    135  C         79.1630   23.7330   14.2720 C.2   234  TRP234      0.2620
    136  O         78.2450   24.3680   14.7870 O.2   234  TRP234     -0.2715
    137  CB        81.0020   22.8900   15.8230 C.3   234  TRP234      0.0590
    138  CG        80.4060   23.0910   17.1780 C.ar  234  TRP234      0.0006
    139  CD1       79.1230   22.8230   17.5660 C.ar  234  TRP234      0.0946
    140  CD2       81.0840   23.5850   18.3430 C.ar  234  TRP234      0.0152
    141  NE1       78.9560   23.1160   18.8990 N.ar  234  TRP234     -0.2442
    142  CE2       80.1450   23.5870   19.4000 C.ar  234  TRP234      0.0810
    143  CE3       82.3890   24.0250   18.5960 C.ar  234  TRP234      0.0012
    144  CZ2       80.4760   24.0170   20.6960 C.ar  234  TRP234      0.0191
    145  CZ3       82.7190   24.4520   19.8890 C.ar  234  TRP234      0.0001
    146  CH2       81.7640   24.4430   20.9180 C.ar  234  TRP234      0.0015
    147  N         78.9840   22.8890   13.2690 N.am  235  TYR235     -0.1960
    148  CA        77.6770   22.6190   12.6850 C.3   235  TYR235      0.1771
    149  C         76.6110   22.0740   13.6300 C.2   235  TYR235      0.2619
    150  O         76.9200   21.5510   14.6990 O.2   235  TYR235     -0.2715
    151  CB        77.8640   21.6630   11.5180 C.3   235  TYR235      0.0574
    152  CG        77.8850   22.3340   10.1720 C.ar  235  TYR235     -0.0198
    153  CD1       78.7380   21.8860    9.1680 C.ar  235  TYR235     -0.0009
    154  CD2       76.9760   23.3430    9.8580 C.ar  235  TYR235     -0.0009
    155  CE1       78.6700   22.4000    7.8790 C.ar  235  TYR235      0.0417
    156  CE2       76.8970   23.8660    8.5660 C.ar  235  TYR235      0.0417
    157  CZ        77.7480   23.3880    7.5870 C.ar  235  TYR235      0.1957
    158  OH        77.6320   23.8330    6.2980 O.3   235  TYR235     -0.2866
    159  N         75.3520   22.2140   13.2180 N.am  236  MET236     -0.1977
    160  CA        74.1990   21.7240   13.9780 C.3   236  MET236      0.1605
    161  C         73.3910   20.8010   13.0740 C.2   236  MET236      0.2287
    162  O         72.7550   21.2620   12.1400 O.2   236  MET236     -0.2864
    163  CB        73.3220   22.8990   14.4500 C.3   236  MET236      0.0413
    164  CG        71.9600   22.4950   15.0480 C.3   236  MET236      0.0598
    165  SD        71.0380   23.8190   15.9290 S.3   236  MET236     -0.1393
    166  CE        70.5640   24.8720   14.6000 C.3   236  MET236      0.0692
    167  N         71.2470   21.8750   10.2820 N.3   239  GLU239     -0.1245
    168  CA        71.8560   22.6790    9.2320 C.3   239  GLU239      0.1567
    169  C         72.1020   21.8610    7.9720 C.2   239  GLU239      0.2260
    170  O         71.6440   22.2120    6.8820 O.2   239  GLU239     -0.2867
    171  CB        73.1880   23.2710    9.7090 C.3   239  GLU239      0.0388
    172  CG        73.0320   24.5060   10.5670 C.3   239  GLU239      0.1160
    173  CD        74.3440   25.2170   10.8410 C.2   239  GLU239      0.3649
    174  OE1       74.9330   25.7990    9.9160 O.co2 239  GLU239     -0.2457
    175  OE2       74.7930   25.2050   11.9950 O.co2 239  GLU239     -0.2457
    176  N         68.4550   21.4150    5.8790 N.3   243  ARG243     -0.1245
    177  CA        68.5160   22.4910    4.9040 C.3   243  ARG243      0.1563
    178  C         69.3940   22.1470    3.6990 C.2   243  ARG243      0.2260
    179  O         68.9010   21.9840    2.5890 O.2   243  ARG243     -0.2867
    180  CB        69.0210   23.7750    5.5810 C.3   243  ARG243      0.0307
    181  CG        68.1020   24.3250    6.6850 C.3   243  ARG243      0.0489
    182  CD        66.7430   24.6430    6.1360 C.3   243  ARG243      0.2205
    183  NE        66.8500   25.5350    4.9960 N.pl3 243  ARG243     -0.0865
    184  CZ        67.1800   26.8130    5.0860 C.cat 243  ARG243      0.5346
    185  NH1       67.4390   27.3530    6.2730 N.pl3 243  ARG243      0.1354
    186  NH2       67.2630   27.5540    3.9910 N.pl3 243  ARG243      0.1354
    187  N         76.5490   19.3730   17.0690 N.3   296  VAL296     -0.1245
    188  CA        75.5190   19.5700   18.0830 C.3   296  VAL296      0.1561
    189  C         74.1370   19.4530   17.4450 C.2   296  VAL296      0.2260
    190  O         73.9060   19.9420   16.3450 O.2   296  VAL296     -0.2867
    191  CB        75.6350   20.9500   18.7830 C.3   296  VAL296      0.0252
    192  CG1       75.3440   22.0770   17.8090 C.3   296  VAL296      0.0019
    193  CG2       74.6710   21.0130   19.9500 C.3   296  VAL296      0.0019
    194  N         71.4140   22.6990   21.3960 N.3   301  ALA301     -0.1245
    195  CA        71.6750   24.1120   21.1280 C.3   301  ALA301      0.1562
    196  C         70.6690   24.9600   21.8940 C.2   301  ALA301      0.2260
    197  O         71.0380   25.7390   22.7590 O.2   301  ALA301     -0.2867
    198  CB        71.5610   24.3980   19.6360 C.3   301  ALA301      0.0290
    199  N         71.3140   25.0540   25.2940 N.3   304  GLN304     -0.1245
    200  CA        72.5060   25.8380   25.6100 C.3   304  GLN304      0.1566
    201  C         72.2230   27.3260   25.3670 C.2   304  GLN304      0.2260
    202  O         72.8360   28.1970   25.9870 O.2   304  GLN304     -0.2867
    203  CB        73.6940   25.3790   24.7580 C.3   304  GLN304      0.0367
    204  CG        73.8700   23.8690   24.6910 C.3   304  GLN304      0.0905
    205  CD        75.0460   23.4500   23.8230 C.2   304  GLN304      0.2608
    206  OE1       75.2850   24.0060   22.7490 O.2   304  GLN304     -0.2717
    207  NE2       75.7810   22.4520   24.2810 N.am  304  GLN304     -0.0878
    208  N         65.2040   33.1370   12.6550 N.3   325  TRP325     -0.1241
    209  CA        66.4890   32.4820   12.4630 C.3   325  TRP325      0.1605
    210  C         66.9610   31.6600   13.6440 C.2   325  TRP325      0.2264
    211  O         68.0850   31.1810   13.6440 O.2   325  TRP325     -0.2867
    212  CB        67.5700   33.5070   12.1740 C.3   325  TRP325      0.0550
    213  CG        67.6640   33.9000   10.7690 C.ar  325  TRP325      0.0003
    214  CD1       66.7740   34.6440   10.0720 C.ar  325  TRP325      0.0946
    215  CD2       68.7140   33.5650    9.8670 C.ar  325  TRP325      0.0152
    216  NE1       67.2060   34.8020    8.7820 N.ar  325  TRP325     -0.2442
    217  CE2       68.3990   34.1480    8.6290 C.ar  325  TRP325      0.0810
    218  CE3       69.9020   32.8340    9.9850 C.ar  325  TRP325      0.0012
    219  CZ2       69.2240   34.0210    7.5100 C.ar  325  TRP325      0.0191
    220  CZ3       70.7230   32.7070    8.8710 C.ar  325  TRP325      0.0001
    221  CH2       70.3790   33.3010    7.6500 C.ar  325  TRP325      0.0015
    222  N         78.9470   43.8080   15.7180 N.3   350  ASN350     -0.1225
    223  CA        78.0750   42.7840   15.1630 C.3   350  ASN350      0.1785
    224  C         78.6450   42.3790   13.8170 C.2   350  ASN350      0.2597
    225  O         79.6600   42.9290   13.3870 O.2   350  ASN350     -0.2718
    226  CB        76.6650   43.3590   14.9820 C.3   350  ASN350      0.1169
    227  CG        75.5770   42.3160   15.1130 C.2   350  ASN350      0.2627
    228  OD1       75.5660   41.3160   14.3940 O.2   350  ASN350     -0.2716
    229  ND2       74.6460   42.5490   16.0330 N.am  350  ASN350     -0.0877
    230  N         78.0020   41.4100   13.1700 N.am  351  PHE351     -0.1976
    231  CA        78.4210   40.9560   11.8470 C.3   351  PHE351      0.1639
    232  C         77.3700   41.4180   10.8570 C.2   351  PHE351      0.2290
    233  O         76.1760   41.4210   11.1570 O.2   351  PHE351     -0.2864
    234  CB        78.5620   39.4400   11.8090 C.3   351  PHE351      0.0560
    235  CG        79.8260   38.9430   12.4440 C.ar  351  PHE351     -0.0200
    236  CD1       81.0630   39.2250   11.8680 C.ar  351  PHE351     -0.0042
    237  CD2       79.7910   38.1910   13.6170 C.ar  351  PHE351     -0.0042
    238  CE1       82.2400   38.7670   12.4430 C.ar  351  PHE351     -0.0003
    239  CE2       80.9720   37.7260   14.2070 C.ar  351  PHE351     -0.0003
    240  CZ        82.1940   38.0170   13.6170 C.ar  351  PHE351     -0.0000
    241  N         76.2860   41.9240    6.3530 N.3   353  TYR353     -0.1241
    242  CA        76.4630   41.4350    4.9940 C.3   353  TYR353      0.1605
    243  C         77.1700   42.5000    4.1620 C.2   353  TYR353      0.2264
    244  O         77.3080   43.6510    4.5830 O.2   353  TYR353     -0.2867
    245  CB        75.1180   41.1370    4.3500 C.3   353  TYR353      0.0534
    246  CG        74.3740   40.0200    5.0000 C.ar  353  TYR353     -0.0201
    247  CD1       74.9690   38.7800    5.1720 C.ar  353  TYR353     -0.0009
    248  CD2       73.0670   40.1900    5.4230 C.ar  353  TYR353     -0.0009
    249  CE1       74.2740   37.7300    5.7620 C.ar  353  TYR353      0.0417
    250  CE2       72.3640   39.1470    6.0140 C.ar  353  TYR353      0.0417
    251  CZ        72.9720   37.9230    6.1780 C.ar  353  TYR353      0.1957
    252  OH        72.2770   36.8950    6.7590 O.3   353  TYR353     -0.2866
@<TRIPOS>BOND
     1    84    85    1
     2    88    85    1
     3    88    89    1
     4    85    86    1
     5    89    90   ar
     6    89    91   ar
     7    86    87    2
     8   179   178    2
     9    90    92   ar
    10    91    93   ar
    11    92    93   ar
    12   178   177    1
    13   186   184    1
    14   243   244    2
    15   243   242    1
    16   245   242    1
    17   245   246    1
    18   177   180    1
    19   177   176    1
    20   242   241    1
    21   183   184    2
    22   183   182    1
    23   246   247   ar
    24   246   248   ar
    25   184   185    1
    26   247   249   ar
    27   102   103    1
    28   248   250   ar
    29   180   181    1
    30   249   251   ar
    31   250   251   ar
    32   182   181    1
    33   103   104    1
    34   103   106    1
    35   251   252    1
    36   158   157    1
    37   104   105    2
    38    96    95    1
    39    96    97    2
    40   170   169    2
    41   107   106    1
    42   107   108    1
    43    95    94    1
    44    95    98    1
    45   100    98    1
    46   219   221   ar
    47   219   217   ar
    48   157   155   ar
    49   157   156   ar
    50   221   220   ar
    51    98    99    1
    52   155   153   ar
    53    99   101    1
    54   169   168    1
    55    30    29    1
    56   108   109    1
    57   156   154   ar
    58   217   216   ar
    59   217   215   ar
    60    31    29    1
    61   216   214   ar
    62   220   218   ar
    63    29    28    2
    64   153   152   ar
    65   168   171    1
    66   168   167    1
    67   171   172    1
    68   154   152   ar
    69   215   218   ar
    70   215   213   ar
    71   174   173   ar
    72   214   213   ar
    73   152   151    1
    74    28    27    1
    75   110   111    1
    76   113   112    2
    77   172   173    1
    78    27    26    1
    79   213   212    1
    80   120   119   ar
    81   120   118   ar
    82   173   175   ar
    83   232   233    2
    84   232   231    1
    85   119   117   ar
    86   118   116   ar
    87   117   115   ar
    88   112   111    1
    89   112   121   am
    90   151   148    1
    91   111   114    1
    92   116   115   ar
    93   125   122    1
    94   125   126    1
    95   115   114    1
    96   234   231    1
    97   234   235    1
    98   231   230    1
    99   236   238   ar
   100   236   235   ar
   101   162   161    2
   102   212   209    1
   103    26    25    1
   104   238   240   ar
   105   235   237   ar
   106   209   208    1
   107   209   210    1
   108   122   121    1
   109   122   123    1
   110   126   127    2
   111   126   128   am
   112   148   147    1
   113   148   149    1
   114    25    22    1
   115   161   160    1
   116   230   224   am
   117   159   149   am
   118   159   160    1
   119   147   135   am
   120   225   224    2
   121   240   239   ar
   122   237   239   ar
   123   149   150    2
   124   211   210    2
   125    81    83    1
   126    81    80    1
   127    78    77    1
   128    78    79    2
   129   224   223    1
   130   123   129   am
   131   123   124    2
   132   132   131    2
   133   129   130    1
   134    24    23    2
   135   160   163    1
   136    77    80    1
   137    77    76    1
   138    22    23    1
   139    22    21    1
   140   135   134    1
   141   135   136    2
   142   228   227    2
   143   163   164    1
   144   166   165    1
   145    23    32   am
   146    80    82    1
   147   131   130    1
   148   131   133   am
   149   134   133    1
   150   134   137    1
   151   226   227    1
   152   226   223    1
   153   164   165    1
   154   227   229   am
   155   223   222    1
   156    32    33    1
   157   137   138    1
   158    20    19    1
   159    19    16    1
   160    33    36    1
   161    33    34    1
   162   190   189    2
   163    36    37    1
   164    16    17    1
   165    16    15    1
   166    17    18    2
   167   187   188    1
   168   138   139   ar
   169   138   140   ar
   170    71    70    1
   171    71    72    2
   172    70    69    1
   173    70    73    1
   174    38    34   am
   175    38    39    1
   176    44    42    1
   177    34    35    2
   178   189   188    1
   179   139   141   ar
   180   192   191    1
   181    69    75    1
   182    67    66    1
   183    42    39    1
   184    42    43    1
   185   188   191    1
   186    68    66    1
   187     2     1    1
   188     2     5    1
   189     2     3    1
   190     7     9   ar
   191     7     6   ar
   192   140   143   ar
   193   140   142   ar
   194     9    10   ar
   195    73    74    1
   196    39    40    1
   197     5     6    1
   198     6     8   ar
   199   143   145   ar
   200    66    65    1
   201    45    43    1
   202   191   193    1
   203   141   142   ar
   204    10     8   ar
   205    10    12   ar
   206    46    40   am
   207    46    47    1
   208     8    11   ar
   209     4     3    2
   210    74    75    1
   211    12    14   ar
   212   142   144   ar
   213    40    41    2
   214    11    13   ar
   215   198   195    1
   216    14    13   ar
   217    47    48    1
   218   145   146   ar
   219    49    48    2
   220    65    62    1
   221    63    62    1
   222    63    64    2
   223   144   146   ar
   224    62    61    1
   225   195   194    1
   226   195   196    1
   227   196   197    2
   228    57    59   ar
   229    57    55   ar
   230   206   205    2
   231    53    52    2
   232    59    60   ar
   233    54    55    1
   234    54    51    1
   235    52    51    1
   236    55    56   ar
   237   205   207   am
   238   205   204    1
   239    60    58   ar
   240    51    50    1
   241   204   203    1
   242    56    58   ar
   243   203   200    1
   244   199   200    1
   245   201   200    1
   246   201   202    2
