@<TRIPOS>MOLECULE
tmp/2flrB00.pdb
 140 138 0 0 0
SMALL
GASTEIGER

@<TRIPOS>ATOM
      1  N         50.3270   -1.4390    1.0620 N.3    25  LEU25      -0.1231
      2  CA        51.3090   -1.4290    2.2030 C.3    25  LEU25       0.1693
      3  C         50.5460   -1.7500    3.4720 C.2    25  LEU25       0.2592
      4  O         50.7310   -2.8080    4.0310 O.2    25  LEU25      -0.2718
      5  CB        51.9790   -0.0180    2.3390 C.3    25  LEU25       0.0284
      6  CG        53.0030    0.0230    3.5210 C.3    25  LEU25       0.0019
      7  CD1       54.1930   -0.9320    3.2760 C.3    25  LEU25       0.0001
      8  CD2       53.5650    1.4400    3.7280 C.3    25  LEU25       0.0001
      9  N         49.7120   -0.8390    3.8820 N.am   26  CYS26      -0.1970
     10  CA        48.8860   -0.9920    5.1090 C.3    26  CYS26       0.1712
     11  C         47.6690   -0.1510    4.8730 C.2    26  CYS26       0.2296
     12  O         47.4660    0.3270    3.7700 O.2    26  CYS26      -0.2864
     13  CB        49.6670   -0.4720    6.3420 C.3    26  CYS26       0.0983
     14  SG        50.9930   -1.5040    7.0080 S.3    26  CYS26      -0.0798
     15  N         54.9040   -0.0060   12.2240 N.3    41  HIS41      -0.1226
     16  CA        55.6740   -1.1110   11.5490 C.3    41  HIS41       0.1752
     17  C         55.5460   -1.0750   10.0470 C.2    41  HIS41       0.2596
     18  O         56.4350   -1.5780    9.3910 O.2    41  HIS41      -0.2718
     19  CB        55.2740   -2.6150   12.0220 C.3    41  HIS41       0.0759
     20  CG        53.8820   -3.1300   11.7340 C.ar   41  HIS41       0.0818
     21  ND1       52.8470   -2.9010   12.4870 N.ar   41  HIS41      -0.2268
     22  CD2       53.4180   -3.8900   10.6680 C.ar   41  HIS41       0.1154
     23  CE1       51.7900   -3.4480   11.9720 C.ar   41  HIS41       0.1986
     24  NE2       52.1160   -4.0500   10.8740 N.ar   41  HIS41      -0.2212
     25  N         54.4840   -0.5010    9.5410 N.am   42  CYS42      -0.1970
     26  CA        54.2860   -0.4220    8.0660 C.3    42  CYS42       0.1712
     27  C         55.4540    0.1910    7.3770 C.2    42  CYS42       0.2296
     28  O         55.7460   -0.1100    6.2430 O.2    42  CYS42      -0.2864
     29  CB        53.1220    0.3870    7.7910 C.3    42  CYS42       0.0983
     30  SG        51.6490   -0.3360    8.5090 S.3    42  CYS42      -0.0798
     31  N         58.5740   -0.1570    8.3800 N.3    44  ASP44      -0.1225
     32  CA        59.8630   -0.7780    8.8610 C.3    44  ASP44       0.1805
     33  C         60.8090   -1.1140    7.7380 C.2    44  ASP44       0.2597
     34  O         62.0050   -1.1070    7.9430 O.2    44  ASP44      -0.2718
     35  CB        59.6750   -2.1230    9.6080 C.3    44  ASP44       0.1424
     36  CG        59.1200   -2.0210   11.0390 C.2    44  ASP44       0.3668
     37  OD1       59.4580   -1.0450   11.6750 O.co2  44  ASP44      -0.2456
     38  OD2       58.4020   -2.9270   11.4300 O.co2  44  ASP44      -0.2456
     39  N         60.2680   -1.4010    6.5900 N.am   45  LYS45      -0.1979
     40  CA        61.1210   -1.7630    5.4170 C.3    45  LYS45       0.1596
     41  C         61.2930   -0.6190    4.3950 C.2    45  LYS45       0.2287
     42  O         62.3610   -0.4720    3.8320 O.2    45  LYS45      -0.2864
     43  CB        60.4880   -2.9690    4.7130 C.3    45  LYS45       0.0298
     44  CG        60.3360   -4.2180    5.6350 C.3    45  LYS45       0.0038
     45  CD        61.7120   -4.8820    5.8430 C.3    45  LYS45       0.0206
     46  CE        62.2390   -4.6030    7.2490 C.3    45  LYS45       0.1093
     47  NZ        61.4330   -5.3810    8.2350 N.3    45  LYS45      -0.1314
     48  N         59.7650   -3.6640   14.1540 N.3    85  GLY85      -0.1225
     49  CA        59.5580   -5.1200   14.3850 C.3    85  GLY85       0.1811
     50  C         58.6920   -5.4020   15.5790 C.2    85  GLY85       0.2280
     51  O         58.1930   -6.5110   15.6760 O.2    85  GLY85      -0.2866
     52  N         38.6340  -11.4520   13.0620 N.3   186  ASP186     -0.1225
     53  CA        39.8110  -10.6790   13.5730 C.3   186  ASP186      0.1805
     54  C         40.3990   -9.8660   12.4290 C.2   186  ASP186      0.2598
     55  O         40.0150  -10.0220   11.2810 O.2   186  ASP186     -0.2718
     56  CB        40.8800  -11.6560   14.0710 C.3   186  ASP186      0.1424
     57  CG        42.1500  -11.0480   14.7140 C.2   186  ASP186      0.3668
     58  OD1       42.1220   -9.9580   15.2490 O.co2 186  ASP186     -0.2456
     59  OD2       43.1460  -11.7360   14.6540 O.co2 186  ASP186     -0.2456
     60  N         41.3020   -8.9980   12.7500 N.am  187  SER187     -0.1938
     61  CA        41.9170   -8.1980   11.7020 C.3   187  SER187      0.2055
     62  C         42.9280   -9.2470   11.1730 C.2   187  SER187      0.2643
     63  O         43.0810  -10.2990   11.7800 O.2   187  SER187     -0.2714
     64  CB        42.5740   -6.9410   12.3730 C.3   187  SER187      0.2130
     65  OG        43.0010   -7.3680   13.6640 O.3   187  SER187     -0.2179
     66  N         43.5760   -8.9730   10.0720 N.am  188  CYS188     -0.1953
     67  CA        44.5590   -9.9490    9.5370 C.3   188  CYS188      0.1843
     68  C         45.5740   -9.1190    8.8110 C.2   188  CYS188      0.2625
     69  O         45.4150   -7.9110    8.6820 O.2   188  CYS188     -0.2714
     70  CB        43.9310  -10.9700    8.5460 C.3   188  CYS188      0.0997
     71  SG        45.1270  -12.2330    8.0610 S.3   188  CYS188     -0.0797
     72  N         46.5630   -9.8130    8.3590 N.am  189  LYS189     -0.1963
     73  CA        47.7080   -9.2050    7.6150 C.3   189  LYS189      0.1728
     74  C         47.0750   -8.3960    6.4870 C.2   189  LYS189      0.2616
     75  O         46.1180   -8.8440    5.8620 O.2   189  LYS189     -0.2715
     76  CB        48.5720  -10.3200    7.0550 C.3   189  LYS189      0.0311
     77  CG        49.8900   -9.7980    6.5840 C.3   189  LYS189      0.0038
     78  CD        50.6920  -11.0090    6.0950 C.3   189  LYS189      0.0206
     79  CE        52.0080  -10.5350    5.4950 C.3   189  LYS189      0.1093
     80  NZ        52.9070  -11.7120    5.3420 N.3   189  LYS189     -0.1314
     81  N         47.6270   -7.2360    6.2730 N.am  190  GLY190     -0.1955
     82  CA        47.0950   -6.3490    5.2080 C.3   190  GLY190      0.1869
     83  C         46.2560   -5.2670    5.8650 C.2   190  GLY190      0.2309
     84  O         46.0750   -4.1950    5.3170 O.2   190  GLY190     -0.2863
     85  N         46.9030   -3.9480    9.0090 N.3   192  SER192     -0.1217
     86  CA        47.7140   -3.0790    9.9110 C.3   192  SER192      0.1889
     87  C         47.5320   -1.5830    9.6280 C.2   192  SER192      0.2288
     88  O         47.3540   -1.2780    8.4700 O.2   192  SER192     -0.2866
     89  CB        49.2400   -3.3440    9.7570 C.3   192  SER192      0.2089
     90  OG        49.6080   -4.5830   10.3810 O.3   192  SER192     -0.2183
     91  N         44.9700   -0.9030   13.9920 N.3   210  VAL210     -0.1231
     92  CA        45.2470   -2.3670   13.7670 C.3   210  VAL210      0.1692
     93  C         46.7430   -2.5630   13.8920 C.2   210  VAL210      0.2593
     94  O         47.5090   -2.0320   13.1020 O.2   210  VAL210     -0.2718
     95  CB        44.7650   -2.7920   12.3250 C.3   210  VAL210      0.0266
     96  CG1       45.1060   -4.2320   12.0250 C.3   210  VAL210      0.0020
     97  CG2       43.2480   -2.6700   12.2330 C.3   210  VAL210      0.0020
     98  N         47.1560   -3.3200   14.8620 N.am  211  SER211     -0.1938
     99  CA        48.6100   -3.5510   15.0390 C.3   211  SER211      0.2055
    100  C         48.7890   -5.0410   14.7560 C.2   211  SER211      0.2643
    101  O         47.8710   -5.7290   14.3650 O.2   211  SER211     -0.2714
    102  CB        48.9320   -3.1430   16.4660 C.3   211  SER211      0.2130
    103  OG        50.3600   -3.2220   16.6770 O.3   211  SER211     -0.2179
    104  N         49.9720   -5.5060   14.9460 N.am  212  TRP212     -0.1959
    105  CA        50.2360   -6.9270   14.7020 C.3   212  TRP212      0.1771
    106  C         50.6850   -7.4870   16.0510 C.2   212  TRP212      0.2620
    107  O         51.0270   -6.7640   16.9770 O.2   212  TRP212     -0.2715
    108  CB        51.3050   -7.0460   13.5780 C.3   212  TRP212      0.0590
    109  CG        52.6100   -6.2870   13.7920 C.ar  212  TRP212      0.0006
    110  CD1       53.0000   -5.4060   14.7750 C.ar  212  TRP212      0.0946
    111  CD2       53.6310   -6.4530   12.9560 C.ar  212  TRP212      0.0152
    112  NE1       54.2540   -5.1040   14.4550 N.ar  212  TRP212     -0.2442
    113  CE2       54.7270   -5.6890   13.3650 C.ar  212  TRP212      0.0810
    114  CE3       53.6860   -7.2480   11.8180 C.ar  212  TRP212      0.0012
    115  CZ2       55.8940   -5.7300   12.6170 C.ar  212  TRP212      0.0191
    116  CZ3       54.8640   -7.2810   11.0730 C.ar  212  TRP212      0.0001
    117  CH2       55.9610   -6.5230   11.4750 C.ar  212  TRP212      0.0015
    118  N         50.6710   -8.7750   16.0750 N.am  213  GLY213     -0.1940
    119  CA        51.0260   -9.6220   17.2440 C.3   213  GLY213      0.2014
    120  C         49.8640  -10.5920   16.9780 C.2   213  GLY213      0.2639
    121  O         48.7890  -10.1540   16.5900 O.2   213  GLY213     -0.2714
    122  N         50.1000  -11.8610   17.1750 N.am  214  GLN214     -0.1963
    123  CA        49.0890  -12.9660   16.9390 C.3   214  GLN214      0.1733
    124  C         49.0390  -12.9860   15.3940 C.2   214  GLN214      0.2617
    125  O         49.4040  -11.9970   14.7830 O.2   214  GLN214     -0.2715
    126  CB        47.7170  -12.6280   17.5220 C.3   214  GLN214      0.0408
    127  CG        46.6910  -13.7590   17.1770 C.3   214  GLN214      0.0908
    128  CD        45.3380  -13.1880   16.7350 C.2   214  GLN214      0.2608
    129  OE1       44.3190  -13.8490   16.6920 O.2   214  GLN214     -0.2717
    130  NE2       45.2480  -11.9480   16.3740 N.am  214  GLN214     -0.0878
    131  N         48.6110  -14.0170   14.7330 N.am  215  GLY215     -0.1940
    132  CA        48.6180  -13.9590   13.2450 C.3   215  GLY215      0.2014
    133  C         47.3280  -14.1270   12.5320 C.2   215  GLY215      0.2639
    134  O         47.2530  -15.0000   11.6970 O.2   215  GLY215     -0.2714
    135  N         46.3710  -13.3140   12.8820 N.am  216  CYS216     -0.1967
    136  CA        45.0000  -13.3400   12.2530 C.3   216  CYS216      0.1712
    137  C         44.2180  -14.4530   12.9110 C.2   216  CYS216      0.2296
    138  O         44.6780  -15.5740   12.9690 O.2   216  CYS216     -0.2864
    139  CB        45.0780  -13.6070   10.7060 C.3   216  CYS216      0.0983
    140  SG        46.1910  -12.5670    9.7440 S.3   216  CYS216     -0.0798
@<TRIPOS>BOND
     1     1     2    1
     2     2     5    1
     3     2     3    1
     4     5     6    1
     5     7     6    1
     6     3     9   am
     7     3     4    2
     8     6     8    1
     9    12    11    2
    10    42    41    2
    11     9    10    1
    12    41    40    1
    13    43    40    1
    14    43    44    1
    15    11    10    1
    16    10    13    1
    17    82    83    1
    18    82    81    1
    19    84    83    2
    20    80    79    1
    21    40    39    1
    22    79    78    1
    23    44    45    1
    24    45    46    1
    25    75    74    2
    26    78    77    1
    27    28    27    2
    28    81    74   am
    29    13    14    1
    30    74    73    1
    31    77    76    1
    32    39    33   am
    33    14    30    1
    34    76    73    1
    35    46    47    1
    36    27    26    1
    37    73    72    1
    38    33    34    2
    39    33    32    1
    40    29    26    1
    41    29    30    1
    42    71    70    1
    43    71   140    1
    44    26    25    1
    45    72    68   am
    46    31    32    1
    47    88    87    2
    48    70    67    1
    49    69    68    2
    50    68    67    1
    51    32    35    1
    52    85    86    1
    53    18    17    2
    54    67    66    1
    55    25    17   am
    56    35    36    1
    57    87    86    1
    58   140   139    1
    59    89    86    1
    60    89    90    1
    61    17    16    1
    62    66    62   am
    63    22    24   ar
    64    22    20   ar
    65   139   136    1
    66    24    23   ar
    67    36    38   ar
    68    36    37   ar
    69   116   117   ar
    70   116   114   ar
    71    62    61    1
    72    62    63    2
    73    55    54    2
    74   117   115   ar
    75    16    19    1
    76    16    15    1
    77   134   133    2
    78    61    64    1
    79    61    60    1
    80    20    19    1
    81    20    21   ar
    82   114   111   ar
    83    23    21   ar
    84    96    95    1
    85    97    95    1
    86   136   135    1
    87   136   137    1
    88    95    92    1
    89    64    65    1
    90    54    60   am
    91    54    53    1
    92   133   135   am
    93   133   132    1
    94   115   113   ar
    95   137   138    2
    96   111   113   ar
    97   111   109   ar
    98    52    53    1
    99    94    93    2
   100   132   131    1
   101   113   112   ar
   102    53    56    1
   103   108   109    1
   104   108   105    1
   105    92    93    1
   106    92    91    1
   107   109   110   ar
   108    93    98   am
   109    56    57    1
   110    48    49    1
   111   101   100    2
   112    49    50    1
   113   112   110   ar
   114    59    57   ar
   115   105   104    1
   116   105   106    1
   117    57    58   ar
   118   131   124   am
   119   100   104   am
   120   100    99    1
   121   125   124    2
   122    98    99    1
   123    99   102    1
   124   124   123    1
   125    50    51    2
   126   106   118   am
   127   106   107    2
   128   118   119    1
   129   130   128   am
   130   102   103    1
   131   121   120    2
   132   129   128    2
   133   128   127    1
   134   123   122    1
   135   123   126    1
   136   120   122   am
   137   120   119    1
   138   127   126    1
