@<TRIPOS>MOLECULE
tmp/2fluA00.pdb
 165 154 0 0 0
SMALL
GASTEIGER

@<TRIPOS>ATOM
      1  N         10.5280    5.7350    9.9130 N.3    10  TYR10      -0.1241
      2  CA         9.3380    4.9860    9.6070 C.3    10  TYR10       0.1605
      3  C          9.6590    3.6260    9.0370 C.2    10  TYR10       0.2264
      4  O         10.4800    3.5080    8.1500 O.2    10  TYR10      -0.2867
      5  CB         8.5330    5.7560    8.5780 C.3    10  TYR10       0.0534
      6  CG         7.1950    5.1490    8.1980 C.ar   10  TYR10      -0.0201
      7  CD1        7.1000    4.2020    7.1880 C.ar   10  TYR10      -0.0009
      8  CD2        6.0250    5.5850    8.8190 C.ar   10  TYR10      -0.0009
      9  CE1        5.8480    3.6670    6.8260 C.ar   10  TYR10       0.0417
     10  CE2        4.7880    5.0790    8.4550 C.ar   10  TYR10       0.0417
     11  CZ         4.7020    4.1210    7.4730 C.ar   10  TYR10       0.1957
     12  OH         3.4480    3.6530    7.1160 O.3    10  TYR10      -0.2866
     13  N          8.2780   10.4760   12.3680 N.3    39  SER39      -0.1202
     14  CA         8.9900   10.2810   11.0920 C.3    39  SER39       0.2020
     15  C          8.8840   11.5750   10.3160 C.2    39  SER39       0.2619
     16  O          8.0040   12.3790   10.5810 O.2    39  SER39      -0.2717
     17  CB         8.4070    9.1140   10.2840 C.3    39  SER39       0.2103
     18  OG         7.0190    9.2550   10.0670 O.3    39  SER39      -0.2182
     19  N          9.7860   11.7950    9.3650 N.am   40  GLY40      -0.1956
     20  CA         9.7390   13.0360    8.5950 C.3    40  GLY40       0.1869
     21  C         10.1810   14.2480    9.3840 C.2    40  GLY40       0.2309
     22  O          9.8880   15.3950    9.0100 O.2    40  GLY40      -0.2863
     23  N          5.9180   13.7430   11.9170 N.3    56  ARG56      -0.1245
     24  CA         4.5430   13.3170   12.1220 C.3    56  ARG56       0.1563
     25  C          4.5470   11.9620   12.7810 C.2    56  ARG56       0.2260
     26  O          5.5390   11.2270   12.7200 O.2    56  ARG56      -0.2867
     27  CB         3.7570   13.2700   10.8120 C.3    56  ARG56       0.0307
     28  CG         4.0880   12.1310    9.8450 C.3    56  ARG56       0.0489
     29  CD         3.1240   12.2250    8.6680 C.3    56  ARG56       0.2205
     30  NE         3.2940   11.1850    7.6550 N.pl3  56  ARG56      -0.0865
     31  CZ         2.7030   11.2100    6.4610 C.cat  56  ARG56       0.5346
     32  NH1        2.9030   10.2200    5.5990 N.pl3  56  ARG56       0.1354
     33  NH2        1.9130   12.2320    6.1250 N.pl3  56  ARG56       0.1354
     34  N          2.6460    8.8370   12.2250 N.3    58  ASN58      -0.1240
     35  CA         1.8080    8.0870   11.3110 C.3    58  ASN58       0.1653
     36  C          1.7130    6.6410   11.7860 C.2    58  ASN58       0.2266
     37  O          2.6860    5.8800   11.7170 O.2    58  ASN58      -0.2867
     38  CB         2.3880    8.1700    9.8900 C.3    58  ASN58       0.1155
     39  CG         1.4960    7.5180    8.8550 C.2    58  ASN58       0.2627
     40  OD1        0.3670    7.1170    9.1500 O.2    58  ASN58      -0.2716
     41  ND2        1.9990    7.4110    7.6210 N.am   58  ASN58      -0.0877
     42  N         -2.9850    9.5410   11.6800 N.3    63  ASN63      -0.1240
     43  CA        -1.8170   10.3730   11.5640 C.3    63  ASN63       0.1653
     44  C         -2.0110   11.7260   12.2270 C.2    63  ASN63       0.2266
     45  O         -3.0990   12.3100   12.1830 O.2    63  ASN63      -0.2867
     46  CB        -1.4420   10.5910   10.1110 C.3    63  ASN63       0.1155
     47  CG        -0.2780   11.5340    9.9840 C.2    63  ASN63       0.2627
     48  OD1        0.8330   11.2000   10.4030 O.2    63  ASN63      -0.2716
     49  ND2       -0.5320   12.7470    9.4840 N.am   63  ASN63      -0.0877
     50  N          5.6020   18.4140    8.8170 N.3    90  ASN90      -0.1225
     51  CA         6.0700   17.0960    8.3880 C.3    90  ASN90       0.1785
     52  C          7.0380   17.2830    7.2230 C.2    90  ASN90       0.2597
     53  O          6.7900   18.1170    6.3540 O.2    90  ASN90      -0.2718
     54  CB         4.8700   16.2480    7.9380 C.3    90  ASN90       0.1169
     55  CG         5.2740   14.9150    7.3670 C.2    90  ASN90       0.2627
     56  OD1        6.0950   14.2170    7.9310 O.2    90  ASN90      -0.2716
     57  ND2        4.6850   14.5670    6.2250 N.am   90  ASN90      -0.0877
     58  N          8.1030   16.4800    7.1620 N.am   91  ARG91      -0.1979
     59  CA         9.0910   16.5840    6.0670 C.3    91  ARG91       0.1597
     60  C          9.7090   17.9960    6.0250 C.2    91  ARG91       0.2287
     61  O          9.9310   18.6160    4.9750 O.2    91  ARG91      -0.2864
     62  CB         8.4980   16.1300    4.7310 C.3    91  ARG91       0.0334
     63  CG         8.0330   14.6800    4.7440 C.3    91  ARG91       0.0492
     64  CD         7.6810   14.2080    3.3450 C.3    91  ARG91       0.2205
     65  NE         8.9210   14.0450    2.5730 N.pl3  91  ARG91      -0.0865
     66  CZ         8.9820   14.0160    1.2410 C.cat  91  ARG91       0.5346
     67  NH1        7.8810   14.1390    0.5070 N.pl3  91  ARG91       0.1354
     68  NH2       10.1620   13.8780    0.6510 N.pl3  91  ARG91       0.1354
     69  N          9.2560   19.5600   -2.7250 N.3   154  PHE154     -0.1241
     70  CA         8.0100   19.3390   -3.4590 C.3   154  PHE154      0.1605
     71  C          7.0880   20.4790   -3.0330 C.2   154  PHE154      0.2264
     72  O          6.9260   20.7370   -1.8400 O.2   154  PHE154     -0.2867
     73  CB         7.4220   17.9870   -3.0390 C.3   154  PHE154      0.0534
     74  CG         6.1130   17.6420   -3.7000 C.ar  154  PHE154     -0.0203
     75  CD1        6.0530   17.3360   -5.0640 C.ar  154  PHE154     -0.0042
     76  CD2        4.9410   17.5860   -2.9410 C.ar  154  PHE154     -0.0042
     77  CE1        4.8270   16.9920   -5.6740 C.ar  154  PHE154     -0.0003
     78  CE2        3.7130   17.2520   -3.5330 C.ar  154  PHE154     -0.0003
     79  CZ         3.6590   16.9580   -4.8950 C.ar  154  PHE154     -0.0000
     80  N          7.8490   18.3120   -8.0770 N.3   159  ARG159     -0.1245
     81  CA         9.1730   18.1760   -7.4610 C.3   159  ARG159      0.1563
     82  C         10.1140   19.2290   -8.0510 C.2   159  ARG159      0.2260
     83  O          9.9590   19.6320   -9.2120 O.2   159  ARG159     -0.2867
     84  CB         9.7420   16.7770   -7.6780 C.3   159  ARG159      0.0307
     85  CG         9.1820   15.7230   -6.7450 C.3   159  ARG159      0.0489
     86  CD         7.9620   15.0540   -7.3050 C.3   159  ARG159      0.2205
     87  NE         7.4070   14.1490   -6.3100 N.pl3 159  ARG159     -0.0865
     88  CZ         6.2840   13.4650   -6.4650 C.cat 159  ARG159      0.5346
     89  NH1        5.5880   13.5690   -7.5950 N.pl3 159  ARG159      0.1354
     90  NH2        5.8530   12.6840   -5.4820 N.pl3 159  ARG159      0.1354
     91  N         13.4450   15.7960   -4.6140 N.3   184  SER184     -0.1217
     92  CA        12.6180   15.9570   -3.4400 C.3   184  SER184      0.1889
     93  C         13.0410   14.8880   -2.4320 C.2   184  SER184      0.2288
     94  O         13.2870   13.7370   -2.8000 O.2   184  SER184     -0.2866
     95  CB        11.1450   15.8560   -3.7990 C.3   184  SER184      0.2089
     96  OG        10.3630   16.1690   -2.6690 O.3   184  SER184     -0.2183
     97  N         14.2210   12.1370   -4.8820 N.3   201  TYR201     -0.1241
     98  CA        13.2890   11.5770   -5.8490 C.3   201  TYR201      0.1605
     99  C         13.1090   12.5910   -6.9790 C.2   201  TYR201      0.2264
    100  O         12.8710   13.7590   -6.7050 O.2   201  TYR201     -0.2867
    101  CB        11.9670   11.3190   -5.1340 C.3   201  TYR201      0.0534
    102  CG        10.9230   10.6090   -5.9520 C.ar  201  TYR201     -0.0201
    103  CD1       11.0820    9.2770   -6.3160 C.ar  201  TYR201     -0.0009
    104  CD2        9.7630   11.2700   -6.3480 C.ar  201  TYR201     -0.0009
    105  CE1       10.1060    8.6210   -7.0680 C.ar  201  TYR201      0.0417
    106  CE2        8.7830   10.6220   -7.0850 C.ar  201  TYR201      0.0417
    107  CZ         8.9610    9.2990   -7.4340 C.ar  201  TYR201      0.1957
    108  OH         7.9940    8.6280   -8.1880 O.3   201  TYR201     -0.2866
    109  N         13.9880    7.1970   -7.4620 N.3   206  GLN206     -0.1245
    110  CA        14.9820    7.6360   -6.5020 C.3   206  GLN206      0.1566
    111  C         16.3410    7.7410   -7.1740 C.2   206  GLN206      0.2260
    112  O         16.6270    7.0650   -8.1910 O.2   206  GLN206     -0.2867
    113  CB        15.0940    6.6490   -5.3550 C.3   206  GLN206      0.0367
    114  CG        14.0840    6.9150   -4.2580 C.3   206  GLN206      0.0905
    115  CD        12.6820    6.4420   -4.5650 C.2   206  GLN206      0.2608
    116  OE1       12.4560    5.5850   -5.4300 O.2   206  GLN206     -0.2717
    117  NE2       11.7280    6.9650   -3.8010 N.am  206  GLN206     -0.0878
    118  N         15.6440    8.1440   -1.2150 N.3   231  SER231     -0.1202
    119  CA        15.0480    9.4290   -0.8270 C.3   231  SER231      0.2020
    120  C         14.5710    9.3220    0.6270 C.2   231  SER231      0.2618
    121  O         14.5240    8.2240    1.1840 O.2   231  SER231     -0.2717
    122  CB        13.8980    9.7950   -1.7750 C.3   231  SER231      0.2103
    123  OG        12.8640    8.8180   -1.7860 O.3   231  SER231     -0.2182
    124  N         14.2570   10.4590    1.2520 N.am  232  ALA232     -0.1979
    125  CA        13.8640   10.4920    2.6660 C.3   232  ALA232      0.1597
    126  C         14.9720    9.8430    3.5140 C.2   232  ALA232      0.2287
    127  O         14.7310    9.0660    4.4320 O.2   232  ALA232     -0.2864
    128  CB        12.4810    9.8080    2.8770 C.3   232  ALA232      0.0319
    129  N         14.2090    5.4030    1.4500 N.3   248  TYR248     -0.1241
    130  CA        13.3000    4.5280    0.7200 C.3   248  TYR248      0.1605
    131  C         13.7620    4.5330   -0.7310 C.2   248  TYR248      0.2264
    132  O         14.1910    5.5670   -1.2250 O.2   248  TYR248     -0.2867
    133  CB        11.9060    5.1430    0.8070 C.3   248  TYR248      0.0534
    134  CG        10.8040    4.3790    0.1120 C.ar  248  TYR248     -0.0201
    135  CD1       10.4580    3.0870    0.5280 C.ar  248  TYR248     -0.0009
    136  CD2       10.0780    4.9610   -0.9250 C.ar  248  TYR248     -0.0009
    137  CE1        9.4180    2.3950   -0.0930 C.ar  248  TYR248      0.0417
    138  CE2        9.0450    4.2870   -1.5430 C.ar  248  TYR248      0.0417
    139  CZ         8.7190    3.0080   -1.1280 C.ar  248  TYR248      0.1957
    140  OH         7.6860    2.3320   -1.7530 O.3   248  TYR248     -0.2866
    141  N         11.7050    2.9510   -3.3470 N.3   250  GLY250     -0.1225
    142  CA        10.5830    2.5010   -4.1640 C.3   250  GLY250      0.1811
    143  C         10.2430    1.0400   -3.9460 C.2   250  GLY250      0.2280
    144  O          9.1600    0.5920   -4.3340 O.2   250  GLY250     -0.2866
    145  N         12.9620   -0.2940    2.4480 N.3   253  PHE253     -0.1241
    146  CA        13.4180    0.6960    3.4330 C.3   253  PHE253      0.1605
    147  C         14.8580    0.3810    3.7790 C.2   253  PHE253      0.2264
    148  O         15.1790   -0.7210    4.2450 O.2   253  PHE253     -0.2867
    149  CB        12.5350    0.6750    4.6770 C.3   253  PHE253      0.0534
    150  CG        11.1460    1.1410    4.4030 C.ar  253  PHE253     -0.0203
    151  CD1       10.2040    0.2730    3.8490 C.ar  253  PHE253     -0.0042
    152  CD2       10.7910    2.4680    4.6430 C.ar  253  PHE253     -0.0042
    153  CE1        8.9180    0.7160    3.5470 C.ar  253  PHE253     -0.0003
    154  CE2        9.5050    2.9150    4.3700 C.ar  253  PHE253     -0.0003
    155  CZ         8.5670    2.0430    3.8090 C.ar  253  PHE253     -0.0000
    156  N         12.8650    4.9380    6.8100 N.3   278  SER278     -0.1202
    157  CA        13.0180    6.2320    6.1250 C.3   278  SER278      0.2020
    158  C         12.6480    7.3940    7.0390 C.2   278  SER278      0.2619
    159  O         12.0660    7.1960    8.0970 O.2   278  SER278     -0.2717
    160  CB        12.1140    6.2960    4.9010 C.3   278  SER278      0.2103
    161  OG        10.7560    6.2960    5.3150 O.3   278  SER278     -0.2182
    162  N         12.9840    8.6120    6.6250 N.am  279  GLY279     -0.1956
    163  CA        12.4790    9.8020    7.3210 C.3   279  GLY279      0.1869
    164  C         13.0450   10.0100    8.7200 C.2   279  GLY279      0.2309
    165  O         12.3580   10.5440    9.6180 O.2   279  GLY279     -0.2863
@<TRIPOS>BOND
     1    83    82    2
     2   112   111    2
     3   108   107    1
     4    80    81    1
     5    82    81    1
     6    84    81    1
     7    84    85    1
     8    89    88    1
     9   109   110    1
    10   107   106   ar
    11   107   105   ar
    12    86    85    1
    13    86    87    1
    14   111   110    1
    15   106   104   ar
    16   105   103   ar
    17    99   100    2
    18    99    98    1
    19   110   113    1
    20    88    87    2
    21    88    90    1
    22   104   102   ar
    23   103   102   ar
    24   102   101    1
    25    98   101    1
    26    98    97    1
    27    77    75   ar
    28    77    79   ar
    29   116   115    2
    30   113   114    1
    31    75    74   ar
    32    79    78   ar
    33    91    92    1
    34   115   114    1
    35   115   117   am
    36   144   143    2
    37   142   143    1
    38   142   141    1
    39    95    92    1
    40    95    96    1
    41    74    73    1
    42    74    76   ar
    43    78    76   ar
    44    70    73    1
    45    70    71    1
    46    70    69    1
    47    92    93    1
    48    71    72    2
    49    94    93    2
    50   123   122    1
    51   122   119    1
    52   140   139    1
    53   138   139   ar
    54   138   136   ar
    55   132   131    2
    56   118   119    1
    57   139   137   ar
    58   136   134   ar
    59   119   120    1
    60   131   130    1
    61   137   135   ar
    62   134   135   ar
    63   134   133    1
    64    67    66    1
    65   120   121    2
    66   120   124   am
    67    68    66    1
    68   130   133    1
    69   130   129    1
    70    66    65    2
    71   124   125    1
    72   145   146    1
    73    65    64    1
    74   125   128    1
    75   125   126    1
    76    64    63    1
    77   146   147    1
    78   146   149    1
    79   126   127    2
    80   153   155   ar
    81   153   151   ar
    82   147   148    2
    83   155   154   ar
    84   151   150   ar
    85   154   152   ar
    86   150   152   ar
    87   150   149    1
    88    62    63    1
    89    62    59    1
    90   160   161    1
    91   160   157    1
    92    61    60    2
    93    32    31    1
    94    60    59    1
    95    59    58    1
    96   157   156    1
    97   157   158    1
    98    33    31    1
    99    57    55   am
   100    53    52    2
   101    31    30    2
   102   162   158   am
   103   162   163    1
   104     9     7   ar
   105     9    11   ar
   106   158   159    2
   107    12    11    1
   108    58    52   am
   109     7     6   ar
   110    52    51    1
   111   163   164    1
   112    55    56    2
   113    55    54    1
   114    11    10   ar
   115    41    39   am
   116    30    29    1
   117    54    51    1
   118     4     3    2
   119     6     5    1
   120     6     8   ar
   121    51    50    1
   122    10     8   ar
   123     5     2    1
   124    20    19    1
   125    20    21    1
   126    29    28    1
   127   164   165    2
   128    39    40    2
   129    39    38    1
   130    22    21    2
   131     3     2    1
   132    19    15   am
   133    49    47   am
   134     2     1    1
   135    28    27    1
   136    38    35    1
   137    47    46    1
   138    47    48    2
   139    18    17    1
   140    46    43    1
   141    17    14    1
   142    15    16    2
   143    15    14    1
   144    27    24    1
   145    14    13    1
   146    35    36    1
   147    35    34    1
   148    43    42    1
   149    43    44    1
   150    37    36    2
   151    23    24    1
   152    24    25    1
   153    45    44    2
   154    26    25    2
