@<TRIPOS>MOLECULE
tmp/2flwA00.pdb
 110 103 0 0 0
SMALL
GASTEIGER

@<TRIPOS>ATOM
      1  N         36.2010  -73.5340   -7.1620 N.3    89  ALA89      -0.1231
      2  CA        36.6890  -74.1810   -8.3790 C.3    89  ALA89       0.1694
      3  C         36.1300  -75.5960   -8.4350 C.2    89  ALA89       0.2592
      4  O         36.4470  -76.4290   -7.5880 O.2    89  ALA89      -0.2718
      5  CB        38.2170  -74.2030   -8.4140 C.3    89  ALA89       0.0304
      6  N         35.2620  -75.8270   -9.4140 N.am   90  LYS90      -0.1966
      7  CA        34.6460  -77.1280   -9.6680 C.3    90  LYS90       0.1728
      8  C         34.8660  -77.4330  -11.1310 C.2    90  LYS90       0.2616
      9  O         34.8320  -76.5180  -11.9580 O.2    90  LYS90      -0.2715
     10  CB        33.1410  -77.0690   -9.4090 C.3    90  LYS90       0.0311
     11  CG        32.7320  -76.9000   -7.9560 C.3    90  LYS90       0.0038
     12  CD        31.2960  -76.4080   -7.8750 C.3    90  LYS90       0.0206
     13  CE        30.6850  -76.6540   -6.5060 C.3    90  LYS90       0.1093
     14  NZ        29.2940  -76.1110   -6.4310 N.3    90  LYS90      -0.1314
     15  N         35.0740  -78.7080  -11.4540 N.am   91  LYS91      -0.1977
     16  CA        35.2800  -79.1360  -12.8390 C.3    91  LYS91       0.1596
     17  C         34.1690  -78.6250  -13.7580 C.2    91  LYS91       0.2287
     18  O         34.4500  -78.0520  -14.8210 O.2    91  LYS91      -0.2864
     19  CB        35.3880  -80.6720  -12.9360 C.3    91  LYS91       0.0298
     20  CG        35.2520  -81.2210  -14.3730 C.3    91  LYS91       0.0038
     21  CD        35.5760  -82.7090  -14.4570 C.3    91  LYS91       0.0206
     22  CE        35.5590  -83.2170  -15.8940 C.3    91  LYS91       0.1093
     23  NZ        34.1690  -83.3050  -16.4740 N.3    91  LYS91      -0.1314
     24  N         34.3070  -74.8080  -14.3090 N.3    94  ILE94      -0.1231
     25  CA        35.5110  -74.4560  -15.0860 C.3    94  ILE94       0.1692
     26  C         35.3110  -74.8050  -16.5510 C.2    94  ILE94       0.2591
     27  O         35.6290  -73.9980  -17.4340 O.2    94  ILE94      -0.2718
     28  CB        36.7940  -75.1460  -14.5580 C.3    94  ILE94       0.0266
     29  CG1       37.1490  -74.6260  -13.1630 C.3    94  ILE94       0.0019
     30  CG2       37.9830  -74.9110  -15.5080 C.3    94  ILE94       0.0020
     31  CD1       38.1400  -75.5180  -12.3840 C.3    94  ILE94       0.0001
     32  N         34.8000  -76.0120  -16.8040 N.am   95  ILE95      -0.1980
     33  CA        34.5010  -76.4400  -18.1760 C.3    95  ILE95       0.1595
     34  C         33.4000  -75.5930  -18.8150 C.2    95  ILE95       0.2287
     35  O         33.4860  -75.2710  -20.0020 O.2    95  ILE95      -0.2864
     36  CB        34.2190  -77.9840  -18.2700 C.3    95  ILE95       0.0276
     37  CG1       35.5040  -78.7500  -17.9540 C.3    95  ILE95       0.0022
     38  CG2       33.7090  -78.3590  -19.6710 C.3    95  ILE95       0.0022
     39  CD1       35.3270  -80.2480  -17.8690 C.3    95  ILE95       0.0001
     40  N         32.8810  -72.3930  -18.1280 N.3    97  ALA97      -0.1231
     41  CA        33.6160  -71.1670  -18.4410 C.3    97  ALA97       0.1694
     42  C         34.4560  -71.3470  -19.7130 C.2    97  ALA97       0.2591
     43  O         34.4580  -70.4800  -20.5830 O.2    97  ALA97      -0.2718
     44  CB        34.5150  -70.7650  -17.2500 C.3    97  ALA97       0.0304
     45  N         35.1630  -72.4710  -19.8140 N.am   98  ALA98      -0.1980
     46  CA        35.9930  -72.7360  -20.9840 C.3    98  ALA98       0.1597
     47  C         35.1640  -72.7610  -22.2790 C.2    98  ALA98       0.2287
     48  O         35.5160  -72.1040  -23.2790 O.2    98  ALA98      -0.2864
     49  CB        36.7570  -74.0390  -20.7990 C.3    98  ALA98       0.0319
     50  N         35.5170  -67.8270  -21.5540 N.3   102  ALA102     -0.1231
     51  CA        36.1070  -67.0380  -20.4620 C.3   102  ALA102      0.1694
     52  C         37.5810  -66.8260  -20.7760 C.2   102  ALA102      0.2593
     53  O         38.2660  -67.7680  -21.1960 O.2   102  ALA102     -0.2718
     54  CB        35.9540  -67.7390  -19.1480 C.3   102  ALA102      0.0304
     55  N         38.0610  -65.5990  -20.5960 N.am  103  SER103     -0.1938
     56  CA        39.4880  -65.3030  -20.8190 C.3   103  SER103      0.2055
     57  C         40.3250  -65.8180  -19.6430 C.2   103  SER103      0.2644
     58  O         41.5120  -66.1970  -19.7930 O.2   103  SER103     -0.2714
     59  CB        39.6940  -63.8140  -21.0280 C.3   103  SER103      0.2130
     60  OG        38.7960  -63.3090  -22.0060 O.3   103  SER103     -0.2179
     61  N         39.6890  -65.8430  -18.4730 N.am  104  GLY104     -0.1939
     62  CA        40.3460  -66.2970  -17.2600 C.3   104  GLY104      0.2014
     63  C         39.3190  -66.7120  -16.2380 C.2   104  GLY104      0.2638
     64  O         38.1190  -66.5030  -16.4290 O.2   104  GLY104     -0.2714
     65  N         39.7940  -67.3070  -15.1510 N.am  105  TYR105     -0.1973
     66  CA        38.9100  -67.8830  -14.1620 C.3   105  TYR105      0.1639
     67  C         39.6120  -67.8030  -12.8150 C.2   105  TYR105      0.2290
     68  O         40.7600  -68.2440  -12.6740 O.2   105  TYR105     -0.2864
     69  CB        38.6250  -69.3300  -14.5550 C.3   105  TYR105      0.0560
     70  CG        37.7640  -70.0910  -13.6040 C.ar  105  TYR105     -0.0198
     71  CD1       36.4010  -70.2400  -13.8330 C.ar  105  TYR105     -0.0009
     72  CD2       38.3240  -70.6930  -12.4750 C.ar  105  TYR105     -0.0009
     73  CE1       35.6160  -70.9790  -12.9490 C.ar  105  TYR105      0.0417
     74  CE2       37.5570  -71.4050  -11.5950 C.ar  105  TYR105      0.0417
     75  CZ        36.2090  -71.5460  -11.8350 C.ar  105  TYR105      0.1957
     76  OH        35.4710  -72.2730  -10.9320 O.3   105  TYR105     -0.2866
     77  N         39.0330  -67.9670   -8.3590 N.3   107  VAL107     -0.1245
     78  CA        38.2070  -68.2700   -7.1910 C.3   107  VAL107      0.1561
     79  C         38.3460  -67.1690   -6.1330 C.2   107  VAL107      0.2260
     80  O         39.4620  -66.7930   -5.7490 O.2   107  VAL107     -0.2867
     81  CB        38.6080  -69.6270   -6.5610 C.3   107  VAL107      0.0252
     82  CG1       37.7330  -69.9380   -5.3350 C.3   107  VAL107      0.0019
     83  CG2       38.4870  -70.7400   -7.5980 C.3   107  VAL107      0.0019
     84  N         46.4880  -63.2040  -12.9940 N.3   118  LYS118     -0.1245
     85  CA        45.4220  -63.6140  -13.9220 C.3   118  LYS118      0.1561
     86  C         45.2440  -62.6040  -15.0560 C.2   118  LYS118      0.2260
     87  O         45.0940  -62.9840  -16.2200 O.2   118  LYS118     -0.2867
     88  CB        44.1040  -63.8280  -13.1640 C.3   118  LYS118      0.0271
     89  CG        44.1860  -64.8580  -12.0350 C.3   118  LYS118      0.0035
     90  CD        44.6020  -66.2280  -12.5210 C.3   118  LYS118      0.0206
     91  CE        44.2960  -67.3070  -11.4840 C.3   118  LYS118      0.1093
     92  NZ        45.0560  -68.5430  -11.8670 N.3   118  LYS118     -0.1314
     93  N         48.2040  -63.0840  -17.4630 N.3   121  LYS121     -0.1245
     94  CA        47.9290  -64.2600  -18.3090 C.3   121  LYS121      0.1561
     95  C         47.0470  -63.9060  -19.5170 C.2   121  LYS121      0.2260
     96  O         47.3250  -64.3120  -20.6360 O.2   121  LYS121     -0.2867
     97  CB        47.2240  -65.3610  -17.5020 C.3   121  LYS121      0.0271
     98  CG        48.0800  -66.1040  -16.4850 C.3   121  LYS121      0.0035
     99  CD        47.2760  -67.2790  -15.8920 C.3   121  LYS121      0.0206
    100  CE        48.1630  -68.2660  -15.1490 C.3   121  LYS121      0.1093
    101  NZ        49.2540  -68.8420  -16.0020 N.3   121  LYS121     -0.1314
    102  N         48.1810  -63.6980  -23.6130 N.3   125  LYS125     -0.1245
    103  CA        47.4750  -64.4290  -24.6530 C.3   125  LYS125      0.1561
    104  C         46.8910  -63.5050  -25.7350 C.2   125  LYS125      0.2260
    105  O         46.9310  -63.8330  -26.9250 O.2   125  LYS125     -0.2867
    106  CB        46.3920  -65.3330  -24.0510 C.3   125  LYS125      0.0271
    107  CG        45.7140  -66.2300  -25.0930 C.3   125  LYS125      0.0035
    108  CD        45.0150  -67.3980  -24.4440 C.3   125  LYS125      0.0206
    109  CE        44.1790  -68.1870  -25.4530 C.3   125  LYS125      0.1093
    110  NZ        43.7140  -69.4630  -24.8210 N.3   125  LYS125     -0.1314
@<TRIPOS>BOND
     1   105   104    2
     2   104   103    1
     3   109   110    1
     4   109   108    1
     5   107   108    1
     6   107   106    1
     7   103   106    1
     8   103   102    1
     9    48    47    2
    10    47    46    1
    11    60    59    1
    12    50    51    1
    13    53    52    2
    14    59    56    1
    15    46    49    1
    16    46    45    1
    17    56    55    1
    18    56    57    1
    19    52    55   am
    20    52    51    1
    21    96    95    2
    22    43    42    2
    23    51    54    1
    24    35    34    2
    25    45    42   am
    26    58    57    2
    27    42    41    1
    28    38    36    1
    29    57    61   am
    30    95    94    1
    31    34    33    1
    32    61    62    1
    33    41    40    1
    34    41    44    1
    35    94    97    1
    36    94    93    1
    37    36    33    1
    38    36    37    1
    39    33    32    1
    40    37    39    1
    41    97    98    1
    42    27    26    2
    43    62    63    1
    44    32    26   am
    45    26    25    1
    46    98    99    1
    47    23    22    1
    48    64    63    2
    49    63    65   am
    50    87    86    2
    51   101   100    1
    52    22    21    1
    53    99   100    1
    54    30    28    1
    55    65    66    1
    56    25    28    1
    57    25    24    1
    58    86    85    1
    59    18    17    2
    60    28    29    1
    61    69    66    1
    62    69    70    1
    63    21    20    1
    64    20    19    1
    65    66    67    1
    66    85    88    1
    67    85    84    1
    68    71    70   ar
    69    71    73   ar
    70    17    16    1
    71    70    72   ar
    72    88    89    1
    73    29    31    1
    74    73    75   ar
    75    19    16    1
    76    16    15    1
    77    67    68    2
    78    90    89    1
    79    90    91    1
    80    72    74   ar
    81     9     8    2
    82    92    91    1
    83    75    74   ar
    84    75    76    1
    85    15     8   am
    86     8     7    1
    87     7     6    1
    88     7    10    1
    89     6     3   am
    90    10    11    1
    91     3     2    1
    92     3     4    2
    93     5     2    1
    94     2     1    1
    95    77    78    1
    96    11    12    1
    97    12    13    1
    98    83    81    1
    99    78    81    1
   100    78    79    1
   101    81    82    1
   102    13    14    1
   103    79    80    2
