@<TRIPOS>MOLECULE
tmp/2fm0D00.pdb
 214 208 0 0 0
SMALL
GASTEIGER

@<TRIPOS>ATOM
      1  N        -14.2670    1.7510  -12.3950 N.3    81  TYR81      -0.1227
      2  CA       -15.1930    2.7910  -11.9600 C.3    81  TYR81       0.1736
      3  C        -14.7120    3.6450  -10.7850 C.2    81  TYR81       0.2595
      4  O        -14.6510    4.8740  -10.8790 O.2    81  TYR81      -0.2718
      5  CB       -16.5550    2.1800  -11.5930 C.3    81  TYR81       0.0548
      6  CG       -17.5970    3.2130  -11.2080 C.ar   81  TYR81      -0.0200
      7  CD1      -18.4160    3.8090  -12.1730 C.ar   81  TYR81      -0.0009
      8  CD2      -17.7300    3.6310   -9.8840 C.ar   81  TYR81      -0.0009
      9  CE1      -19.3400    4.8010  -11.8250 C.ar   81  TYR81       0.0417
     10  CE2      -18.6420    4.6160   -9.5280 C.ar   81  TYR81       0.0417
     11  CZ       -19.4420    5.1980  -10.4980 C.ar   81  TYR81       0.1957
     12  OH       -20.3300    6.1800  -10.1240 O.3    81  TYR81      -0.2866
     13  N        -14.3940    3.0020   -9.6690 N.am   82  HIS82      -0.1975
     14  CA       -13.9600    3.7400   -8.4950 C.3    82  HIS82       0.1656
     15  C        -12.5170    4.2050   -8.5710 C.2    82  HIS82       0.2291
     16  O        -11.6520    3.7440   -7.8250 O.2    82  HIS82      -0.2864
     17  CB       -14.2010    2.8990   -7.2420 C.3    82  HIS82       0.0771
     18  CG       -15.6520    2.7480   -6.9050 C.ar   82  HIS82       0.0820
     19  ND1      -16.3720    1.6060   -7.1890 N.ar   82  HIS82      -0.2267
     20  CD2      -16.5330    3.6280   -6.3740 C.ar   82  HIS82       0.1154
     21  CE1      -17.6350    1.7910   -6.8480 C.ar   82  HIS82       0.1986
     22  NE2      -17.7590    3.0110   -6.3530 N.ar   82  HIS82      -0.2212
     23  N        -13.6820    8.0930   -2.1610 N.3   123  ASP123     -0.1239
     24  CA       -13.4290    6.7160   -2.5960 C.3   123  ASP123      0.1674
     25  C        -11.9280    6.4380   -2.7740 C.2   123  ASP123      0.2266
     26  O        -11.5560    5.4900   -3.4570 O.2   123  ASP123     -0.2867
     27  CB       -14.1320    6.4050   -3.9350 C.3   123  ASP123      0.1410
     28  CG       -15.6170    6.0420   -3.7700 C.2   123  ASP123      0.3668
     29  OD1      -15.9900    5.4070   -2.7520 O.co2 123  ASP123     -0.2456
     30  OD2      -16.4070    6.3740   -4.6830 O.co2 123  ASP123     -0.2456
     31  N         -9.7740    2.8600   -3.2400 N.3   126  HIS126     -0.1241
     32  CA       -10.8310    1.8690   -3.4120 C.3   126  HIS126      0.1621
     33  C        -10.2150    0.7180   -4.2150 C.2   126  HIS126      0.2264
     34  O         -9.6090    0.9440   -5.2700 O.2   126  HIS126     -0.2867
     35  CB       -11.9990    2.4840   -4.1860 C.3   126  HIS126      0.0745
     36  CG       -13.2750    1.7080   -4.0770 C.ar  126  HIS126      0.0817
     37  ND1      -13.4090    0.4190   -4.5510 N.ar  126  HIS126     -0.2268
     38  CD2      -14.4760    2.0420   -3.5510 C.ar  126  HIS126      0.1154
     39  CE1      -14.6400   -0.0060   -4.3200 C.ar  126  HIS126      0.1986
     40  NE2      -15.3070    0.9600   -3.7130 N.ar  126  HIS126     -0.2212
     41  N        -15.5300    2.8620    3.4660 N.3   152  GLU152     -0.1245
     42  CA       -15.7900    4.2550    3.7720 C.3   152  GLU152      0.1567
     43  C        -14.8760    4.7630    4.8900 C.2   152  GLU152      0.2260
     44  O        -14.3580    5.8760    4.8120 O.2   152  GLU152     -0.2867
     45  CB       -17.2620    4.4430    4.1370 C.3   152  GLU152      0.0388
     46  CG       -18.2320    4.1650    2.9820 C.3   152  GLU152      0.1160
     47  CD       -18.4270    2.6840    2.6620 C.2   152  GLU152      0.3649
     48  OE1      -18.0990    1.8250    3.5070 O.co2 152  GLU152     -0.2457
     49  OE2      -18.9380    2.3790    1.5600 O.co2 152  GLU152     -0.2457
     50  N        -21.7890    7.9820    2.5940 N.3   193  THR193     -0.1218
     51  CA       -21.7770    7.4720    1.2260 C.3   193  THR193      0.1862
     52  C        -21.9340    5.9540    1.1780 C.2   193  THR193      0.2287
     53  O        -22.0750    5.3670    0.1040 O.2   193  THR193     -0.2866
     54  CB       -20.4990    7.8780    0.4730 C.3   193  THR193      0.1770
     55  OG1      -19.3480    7.3680    1.1530 O.3   193  THR193     -0.2211
     56  CG2      -20.4120    9.4010    0.3830 C.3   193  THR193      0.0375
     57  N        -23.8370    2.8090    1.1130 N.3   195  MET195     -0.1245
     58  CA       -25.2170    2.5350    0.7220 C.3   195  MET195      0.1570
     59  C        -26.0590    1.9160    1.8350 C.2   195  MET195      0.2261
     60  O        -27.2850    1.9050    1.7500 O.2   195  MET195     -0.2867
     61  CB       -25.2590    1.6300   -0.5130 C.3   195  MET195      0.0387
     62  CG       -24.8320    2.3100   -1.8070 C.3   195  MET195      0.0595
     63  SD       -25.8340    3.7710   -2.1830 S.3   195  MET195     -0.1393
     64  CE       -27.4680    3.0040   -2.4470 C.3   195  MET195      0.0692
     65  N        -24.0740   12.5400   -1.4760 N.3   237  HIS237     -0.1241
     66  CA       -24.6350   11.2220   -1.7830 C.3   237  HIS237      0.1621
     67  C        -25.2960   11.3170   -3.1620 C.2   237  HIS237      0.2264
     68  O        -25.1820   10.4060   -3.9840 O.2   237  HIS237     -0.2867
     69  CB       -25.6600   10.8380   -0.7000 C.3   237  HIS237      0.0745
     70  CG       -26.3130    9.5050   -0.9040 C.ar  237  HIS237      0.0817
     71  ND1      -25.6020    8.3510   -1.1560 N.ar  237  HIS237     -0.2268
     72  CD2      -27.6150    9.1350   -0.8370 C.ar  237  HIS237      0.1154
     73  CE1      -26.4350    7.3290   -1.2330 C.ar  237  HIS237      0.1986
     74  NE2      -27.6640    7.7780   -1.0420 N.ar  237  HIS237     -0.2212
     75  N        -22.6340   11.4210   -5.7560 N.3   240  ASP240     -0.1225
     76  CA       -22.0550   10.0860   -5.9120 C.3   240  ASP240      0.1805
     77  C        -22.9870    9.2270   -6.7770 C.2   240  ASP240      0.2597
     78  O        -22.5290    8.3890   -7.5560 O.2   240  ASP240     -0.2718
     79  CB       -21.8430    9.4710   -4.5130 C.3   240  ASP240      0.1424
     80  CG       -20.9360    8.2290   -4.5140 C.2   240  ASP240      0.3668
     81  OD1      -19.9730    8.1130   -5.3170 O.co2 240  ASP240     -0.2456
     82  OD2      -21.1820    7.3590   -3.6460 O.co2 240  ASP240     -0.2456
     83  N        -24.2940    9.4500   -6.6600 N.am  241  LEU241     -0.1979
     84  CA       -25.2710    8.6890   -7.4500 C.3   241  LEU241      0.1596
     85  C        -25.8990    9.5650   -8.5400 C.2   241  LEU241      0.2287
     86  O        -27.0980    9.4500   -8.8230 O.2   241  LEU241     -0.2864
     87  CB       -26.3850    8.1470   -6.5370 C.3   241  LEU241      0.0297
     88  CG       -25.9450    7.2600   -5.3670 C.3   241  LEU241      0.0022
     89  CD1      -27.1670    6.7740   -4.6070 C.3   241  LEU241      0.0001
     90  CD2      -25.1470    6.0790   -5.8940 C.3   241  LEU241      0.0001
     91  N        -24.6980    9.7420  -11.8050 N.3   243  ASN243     -0.1226
     92  CA       -24.4270    9.2250  -13.1420 C.3   243  ASN243      0.1770
     93  C        -25.6460    9.1690  -14.0730 C.2   243  ASN243      0.2439
     94  O        -25.5820    9.6410  -15.2000 O.2   243  ASN243     -0.2733
     95  CB       -23.8180    7.8200  -13.0690 C.3   243  ASN243      0.1168
     96  CG       -22.4130    7.7960  -12.4630 C.2   243  ASN243      0.2627
     97  OD1      -21.9130    6.7270  -12.1070 O.2   243  ASN243     -0.2716
     98  ND2      -21.7750    8.9580  -12.3530 N.am  243  ASN243     -0.0877
     99  N        -26.7670    8.5840  -13.6130 N.am  244  PRO244     -0.2729
    100  CA       -27.9670    8.4840  -14.4550 C.3   244  PRO244      0.1401
    101  C        -28.6350    9.8110  -14.8020 C.2   244  PRO244      0.2269
    102  O        -29.4980    9.8660  -15.6840 O.2   244  PRO244     -0.2865
    103  CB       -28.8890    7.5770  -13.6400 C.3   244  PRO244      0.0296
    104  CG       -27.9310    6.7850  -12.7730 C.3   244  PRO244      0.0237
    105  CD       -26.9680    7.8600  -12.3480 C.3   244  PRO244      0.0939
    106  N        -23.4480    9.0850  -19.1180 N.3   251  TYR251     -0.1241
    107  CA       -24.0980    8.0350  -18.3510 C.3   251  TYR251      0.1605
    108  C        -23.6760    6.6450  -18.8170 C.2   251  TYR251      0.2264
    109  O        -23.2670    5.8090  -18.0070 O.2   251  TYR251     -0.2867
    110  CB       -25.6170    8.2060  -18.4550 C.3   251  TYR251      0.0534
    111  CG       -26.4550    7.1880  -17.7030 C.ar  251  TYR251     -0.0201
    112  CD1      -25.8880    6.3270  -16.7580 C.ar  251  TYR251     -0.0009
    113  CD2      -27.8280    7.0980  -17.9360 C.ar  251  TYR251     -0.0009
    114  CE1      -26.6740    5.3980  -16.0690 C.ar  251  TYR251      0.0417
    115  CE2      -28.6180    6.1830  -17.2560 C.ar  251  TYR251      0.0417
    116  CZ       -28.0380    5.3360  -16.3260 C.ar  251  TYR251      0.1957
    117  OH       -28.8260    4.4290  -15.6610 O.3   251  TYR251     -0.2866
    118  N        -20.2770    5.5730  -17.7150 N.3   254  TRP254     -0.1227
    119  CA       -20.2280    5.2220  -16.3020 C.3   254  TRP254      0.1737
    120  C        -20.7680    3.8060  -16.1130 C.2   254  TRP254      0.2596
    121  O        -20.1670    2.9940  -15.4060 O.2   254  TRP254     -0.2718
    122  CB       -21.0460    6.2170  -15.4690 C.3   254  TRP254      0.0564
    123  CG       -20.3730    7.5600  -15.3130 C.ar  254  TRP254      0.0003
    124  CD1      -20.8890    8.7790  -15.6490 C.ar  254  TRP254      0.0946
    125  CD2      -19.0540    7.8080  -14.8120 C.ar  254  TRP254      0.0152
    126  NE1      -19.9700    9.7710  -15.3970 N.ar  254  TRP254     -0.2442
    127  CE2      -18.8340    9.2010  -14.8830 C.ar  254  TRP254      0.0810
    128  CE3      -18.0350    6.9880  -14.3130 C.ar  254  TRP254      0.0012
    129  CZ2      -17.6340    9.7950  -14.4740 C.ar  254  TRP254      0.0191
    130  CZ3      -16.8430    7.5790  -13.9030 C.ar  254  TRP254      0.0001
    131  CH2      -16.6540    8.9690  -13.9880 C.ar  254  TRP254      0.0015
    132  N        -21.8980    3.5120  -16.7530 N.am  255  THR255     -0.1953
    133  CA       -22.5040    2.1850  -16.6610 C.3   255  THR255      0.1897
    134  C        -21.5250    1.1010  -17.1120 C.2   255  THR255      0.2313
    135  O        -21.3770    0.0750  -16.4460 O.2   255  THR255     -0.2863
    136  CB       -23.7930    2.0960  -17.5180 C.3   255  THR255      0.1794
    137  OG1      -24.7550    3.0370  -17.0260 O.3   255  THR255     -0.2208
    138  CG2      -24.3960    0.7060  -17.4470 C.3   255  THR255      0.0378
    139  N        -18.8170    0.6980  -14.2910 N.3   258  ILE258     -0.1231
    140  CA       -19.2490    0.0170  -13.0760 C.3   258  ILE258      0.1692
    141  C        -19.5560   -1.4520  -13.3620 C.2   258  ILE258      0.2591
    142  O        -19.3560   -2.3100  -12.5010 O.2   258  ILE258     -0.2718
    143  CB       -20.4830    0.6990  -12.4320 C.3   258  ILE258      0.0266
    144  CG1      -20.7610    0.0910  -11.0530 C.3   258  ILE258      0.0019
    145  CG2      -21.7080    0.5190  -13.3070 C.3   258  ILE258      0.0020
    146  CD1      -19.6880    0.3450  -10.0190 C.3   258  ILE258      0.0001
    147  N        -20.0320   -1.7470  -14.5700 N.am  259  MET259     -0.1979
    148  CA       -20.3300   -3.1280  -14.9330 C.3   259  MET259      0.1605
    149  C        -19.0240   -3.8970  -15.0450 C.2   259  MET259      0.2287
    150  O        -18.9180   -5.0380  -14.5930 O.2   259  MET259     -0.2864
    151  CB       -21.0790   -3.1990  -16.2660 C.3   259  MET259      0.0413
    152  CG       -22.5290   -2.7360  -16.1960 C.3   259  MET259      0.0598
    153  SD       -23.4720   -3.5580  -14.8960 S.3   259  MET259     -0.1393
    154  CE       -23.8550   -5.0700  -15.6540 C.3   259  MET259      0.0692
    155  N        -17.9100   -4.6210  -11.5650 N.3   262  PHE262     -0.1241
    156  CA       -18.7770   -5.6320  -10.9640 C.3   262  PHE262      0.1605
    157  C        -18.4280   -7.0270  -11.4720 C.2   262  PHE262      0.2264
    158  O        -18.3480   -7.9840  -10.6970 O.2   262  PHE262     -0.2867
    159  CB       -20.2420   -5.3460  -11.3030 C.3   262  PHE262      0.0534
    160  CG       -20.9160   -4.3760  -10.3760 C.ar  262  PHE262     -0.0203
    161  CD1      -20.1850   -3.6460   -9.4400 C.ar  262  PHE262     -0.0042
    162  CD2      -22.2920   -4.1800  -10.4520 C.ar  262  PHE262     -0.0042
    163  CE1      -20.8160   -2.7350   -8.5930 C.ar  262  PHE262     -0.0003
    164  CE2      -22.9360   -3.2710   -9.6110 C.ar  262  PHE262     -0.0003
    165  CZ       -22.1960   -2.5470   -8.6790 C.ar  262  PHE262     -0.0000
    166  N        -24.5860   -9.8460   -6.3440 N.3   278  PRO278     -0.2102
    167  CA       -25.6020   -9.4000   -7.2980 C.3   278  PRO278      0.1504
    168  C        -25.0120   -8.5510   -8.4160 C.2   278  PRO278      0.2575
    169  O        -24.1880   -7.6620   -8.1710 O.2   278  PRO278     -0.2718
    170  CB       -26.5650   -8.5990   -6.4270 C.3   278  PRO278      0.0282
    171  CG       -26.4870   -9.3090   -5.1130 C.3   278  PRO278      0.0208
    172  CD       -25.0000   -9.5490   -4.9610 C.3   278  PRO278      0.0893
    173  N        -25.4310   -8.8490   -9.6400 N.am  279  MET279     -0.1980
    174  CA       -24.9970   -8.1140  -10.8210 C.3   279  MET279      0.1605
    175  C        -23.5210   -8.2810  -11.1620 C.2   279  MET279      0.2287
    176  O        -23.0000   -7.5660  -12.0140 O.2   279  MET279     -0.2864
    177  CB       -25.3350   -6.6280  -10.6420 C.3   279  MET279      0.0413
    178  CG       -26.8220   -6.3830  -10.3710 C.3   279  MET279      0.0598
    179  SD       -27.2400   -4.6780   -9.8970 S.3   279  MET279     -0.1393
    180  CE       -26.7890   -4.7000   -8.1800 C.3   279  MET279      0.0692
    181  N        -30.9020   -3.7830  -15.1560 N.3   290  SER290     -0.1202
    182  CA       -30.3130   -3.3850  -13.8810 C.3   290  SER290      0.2020
    183  C        -30.2360   -1.8660  -13.7480 C.2   290  SER290      0.2618
    184  O        -30.3960   -1.3300  -12.6520 O.2   290  SER290     -0.2717
    185  CB       -28.9230   -4.0020  -13.7210 C.3   290  SER290      0.2103
    186  OG       -29.0160   -5.3950  -13.4530 O.3   290  SER290     -0.2182
    187  N        -29.9920   -1.1720  -14.8580 N.am  291  GLN291     -0.1979
    188  CA       -29.9300    0.2850  -14.8170 C.3   291  GLN291      0.1601
    189  C        -31.3280    0.8510  -14.5550 C.2   291  GLN291      0.2287
    190  O        -31.4860    1.8120  -13.8000 O.2   291  GLN291     -0.2864
    191  CB       -29.3630    0.8520  -16.1240 C.3   291  GLN291      0.0394
    192  CG       -27.8310    0.8210  -16.2100 C.3   291  GLN291      0.0908
    193  CD       -27.1670    1.4220  -14.9780 C.2   291  GLN291      0.2608
    194  OE1      -27.4360    2.5680  -14.6100 O.2   291  GLN291     -0.2717
    195  NE2      -26.3000    0.6450  -14.3320 N.am  291  GLN291     -0.0878
    196  N        -32.0250    0.2830  -10.9840 N.3   294  PHE294     -0.1241
    197  CA       -31.1710    1.1730  -10.2040 C.3   294  PHE294      0.1605
    198  C        -31.8620    2.5350  -10.1300 C.2   294  PHE294      0.2264
    199  O        -31.9600    3.1300   -9.0590 O.2   294  PHE294     -0.2867
    200  CB       -29.7940    1.2930  -10.8720 C.3   294  PHE294      0.0534
    201  CG       -28.8300    2.1990  -10.1460 C.ar  294  PHE294     -0.0203
    202  CD1      -28.6980    2.1430   -8.7620 C.ar  294  PHE294     -0.0042
    203  CD2      -28.0280    3.0830  -10.8560 C.ar  294  PHE294     -0.0042
    204  CE1      -27.7750    2.9570   -8.0990 C.ar  294  PHE294     -0.0003
    205  CE2      -27.1040    3.8990  -10.2050 C.ar  294  PHE294     -0.0003
    206  CZ       -26.9800    3.8340   -8.8260 C.ar  294  PHE294     -0.0000
    207  N        -33.5390    3.4200   -6.5530 N.3   298  ILE298     -0.1245
    208  CA       -32.5410    4.1960   -5.8330 C.3   298  ILE298      0.1561
    209  C        -32.3270    5.6310   -6.2910 C.2   298  ILE298      0.2260
    210  O        -32.5280    6.5720   -5.5250 O.2   298  ILE298     -0.2867
    211  CB       -31.1780    3.4750   -5.8760 C.3   298  ILE298      0.0252
    212  CG1      -31.3290    2.0680   -5.2890 C.3   298  ILE298      0.0019
    213  CG2      -30.1340    4.2700   -5.0880 C.3   298  ILE298      0.0019
    214  CD1      -30.0830    1.2210   -5.3950 C.3   298  ILE298      0.0001
@<TRIPOS>BOND
     1   106   107    1
     2   108   107    1
     3   108   109    2
     4   110   107    1
     5   110   111    1
     6   113   111   ar
     7   113   115   ar
     8   118   119    1
     9   111   112   ar
    10   136   138    1
    11   136   137    1
    12   136   133    1
    13   115   116   ar
    14   134   133    1
    15   134   135    2
    16   112   114   ar
    17   132   133    1
    18   132   120   am
    19   116   114   ar
    20   116   117    1
    21   119   120    1
    22   119   122    1
    23   151   152    1
    24   151   148    1
    25   192   191    1
    26   192   193    1
    27   152   153    1
    28   191   188    1
    29   120   121    2
    30   102   101    2
    31   154   153    1
    32   124   126   ar
    33   124   123   ar
    34   122   123    1
    35   126   127   ar
    36   123   125   ar
    37    94    93    2
    38   181   182    1
    39   149   148    1
    40   149   150    2
    41   193   194    2
    42   193   195   am
    43   148   147    1
    44   127   125   ar
    45   127   129   ar
    46   187   188    1
    47   187   183   am
    48   188   189    1
    49   125   128   ar
    50   101   100    1
    51   147   141   am
    52   189   190    2
    53   129   131   ar
    54   100   103    1
    55   100    99    1
    56   128   130   ar
    57   139   140    1
    58    93    99   am
    59    93    92    1
    60   131   130   ar
    61   182   183    1
    62   182   185    1
    63   183   184    2
    64   185   186    1
    65   103   104    1
    66    99   105    1
    67   141   140    1
    68   141   142    2
    69   145   143    1
    70    92    95    1
    71    92    91    1
    72   140   143    1
    73    95    96    1
    74   104   105    1
    75    96    98   am
    76    96    97    2
    77   143   144    1
    78     1     2    1
    79     7     9   ar
    80     7     6   ar
    81   176   175    2
    82     2     5    1
    83     2     3    1
    84     9    11   ar
    85     5     6    1
    86   155   156    1
    87   157   156    1
    88   157   158    2
    89   159   156    1
    90   159   160    1
    91     6     8   ar
    92   175   174    1
    93   144   146    1
    94   196   197    1
    95     4     3    2
    96   200   197    1
    97   200   201    1
    98   203   205   ar
    99   203   201   ar
   100   174   177    1
   101   174   173    1
   102     3    13   am
   103   177   178    1
   104    11    12    1
   105    11    10   ar
   106   162   160   ar
   107   162   164   ar
   108   160   161   ar
   109   178   179    1
   110   205   206   ar
   111   197   198    1
   112   201   202   ar
   113   198   199    2
   114   179   180    1
   115     8    10   ar
   116    13    14    1
   117   173   168   am
   118   164   165   ar
   119   161   163   ar
   120   206   204   ar
   121    86    85    2
   122   202   204   ar
   123   165   163   ar
   124    15    14    1
   125    15    16    2
   126    85    84    1
   127    14    17    1
   128   168   169    2
   129   168   167    1
   130    78    77    2
   131    84    83    1
   132    84    87    1
   133   167   170    1
   134   167   166    1
   135    17    18    1
   136    19    18   ar
   137    19    21   ar
   138    18    20   ar
   139    21    22   ar
   140    77    83   am
   141    77    76    1
   142   207   208    1
   143    87    88    1
   144   170   171    1
   145    20    22   ar
   146   166   172    1
   147   209   208    1
   148   209   210    2
   149    76    75    1
   150    76    79    1
   151    90    88    1
   152   211   208    1
   153   211   212    1
   154   211   213    1
   155   214   212    1
   156    88    89    1
   157    81    80   ar
   158    34    33    2
   159   171   172    1
   160    30    28   ar
   161    37    39   ar
   162    37    36   ar
   163    80    79    1
   164    80    82   ar
   165    39    40   ar
   166    33    32    1
   167    35    36    1
   168    35    32    1
   169    36    38   ar
   170    68    67    2
   171    27    28    1
   172    27    24    1
   173    28    29   ar
   174    40    38   ar
   175    26    25    2
   176    32    31    1
   177    67    66    1
   178    25    24    1
   179    24    23    1
   180    64    63    1
   181    63    62    1
   182    62    61    1
   183    66    65    1
   184    66    69    1
   185    73    71   ar
   186    73    74   ar
   187    71    70   ar
   188    74    72   ar
   189    70    72   ar
   190    70    69    1
   191    61    58    1
   192    53    52    2
   193    56    54    1
   194    54    55    1
   195    54    51    1
   196    58    57    1
   197    58    59    1
   198    52    51    1
   199    51    50    1
   200    49    47   ar
   201    60    59    2
   202    47    46    1
   203    47    48   ar
   204    46    45    1
   205    41    42    1
   206    42    45    1
   207    42    43    1
   208    44    43    2
