@<TRIPOS>MOLECULE
tmp/2fm2A00.pdb
 195 189 0 0 0
SMALL
GASTEIGER

@<TRIPOS>ATOM
      1  N        211.5070   -6.3050   53.3010 N.3    40  THR40      -0.1203
      2  CA       210.7940   -7.0430   52.2730 C.3    40  THR40       0.1994
      3  C        209.5550   -6.3440   51.7170 C.2    40  THR40       0.2618
      4  O        209.1160   -6.6670   50.6140 O.2    40  THR40      -0.2717
      5  CB       210.3900   -8.4480   52.7840 C.3    40  THR40       0.1784
      6  OG1      209.3100   -8.3410   53.7250 O.3    40  THR40      -0.2211
      7  CG2      211.5820   -9.1180   53.4800 C.3    40  THR40       0.0376
      8  N        208.9780   -5.4160   52.4770 N.am   41  GLN41      -0.1965
      9  CA       207.7820   -4.7130   52.0240 C.3    41  GLN41       0.1733
     10  C        207.5190   -3.4870   52.8760 C.2    41  GLN41       0.2617
     11  O        208.0420   -3.3740   53.9920 O.2    41  GLN41      -0.2715
     12  CB       206.5670   -5.6420   52.0860 C.3    41  GLN41       0.0408
     13  CG       206.2590   -6.1530   53.4830 C.3    41  GLN41       0.0908
     14  CD       204.9230   -6.8630   53.5710 C.2    41  GLN41       0.2608
     15  OE1      203.9870   -6.5640   52.8220 O.2    41  GLN41      -0.2717
     16  NE2      204.8160   -7.7950   54.5120 N.am   41  GLN41      -0.0878
     17  N        206.7120   -2.5680   52.3530 N.am   42  THR42      -0.1937
     18  CA       206.3730   -1.3550   53.0790 C.3    42  THR42       0.2028
     19  C        204.8680   -1.2140   53.1120 C.2    42  THR42       0.2642
     20  O        204.1860   -1.5410   52.1460 O.2    42  THR42      -0.2714
     21  CB       207.0290   -0.1070   52.4630 C.3    42  THR42       0.1808
     22  OG1      206.7860    1.0220   53.3070 O.3    42  THR42      -0.2208
     23  CG2      206.4700    0.1750   51.0840 C.3    42  THR42       0.0379
     24  N        204.3720   -0.7190   54.2380 N.am   43  PHE43      -0.1973
     25  CA       202.9500   -0.5580   54.5000 C.3    43  PHE43       0.1639
     26  C        202.7450    0.5280   55.5620 C.2    43  PHE43       0.2290
     27  O        203.6570    1.3100   55.8290 O.2    43  PHE43      -0.2864
     28  CB       202.3490   -1.9090   54.9420 C.3    43  PHE43       0.0560
     29  CG       203.1810   -2.6500   55.9700 C.ar   43  PHE43      -0.0200
     30  CD1      204.4290   -3.1850   55.6340 C.ar   43  PHE43      -0.0042
     31  CD2      202.7380   -2.7740   57.2840 C.ar   43  PHE43      -0.0042
     32  CE1      205.2170   -3.8150   56.5830 C.ar   43  PHE43      -0.0003
     33  CE2      203.5270   -3.4090   58.2530 C.ar   43  PHE43      -0.0003
     34  CZ       204.7710   -3.9270   57.8950 C.ar   43  PHE43      -0.0000
     35  N        199.1260   -4.2560   60.3970 N.3    55  VAL55      -0.1245
     36  CA       198.6850   -5.5200   59.8710 C.3    55  VAL55       0.1561
     37  C        199.7360   -6.6340   60.1110 C.2    55  VAL55       0.2260
     38  O        200.9020   -6.5240   59.7080 O.2    55  VAL55      -0.2867
     39  CB       198.3150   -5.3030   58.3720 C.3    55  VAL55       0.0252
     40  CG1      199.4970   -5.5150   57.4560 C.3    55  VAL55       0.0019
     41  CG2      197.1100   -6.1130   57.9850 C.3    55  VAL55       0.0019
     42  N        200.1860   -9.3790   58.7040 N.3    57  HIS57      -0.1226
     43  CA       200.7800   -9.9090   57.4800 C.3    57  HIS57       0.1752
     44  C        201.8480   -9.0230   56.8750 C.2    57  HIS57       0.2596
     45  O        202.3190   -9.2800   55.7640 O.2    57  HIS57      -0.2718
     46  CB       199.7250  -10.2510   56.4360 C.3    57  HIS57       0.0759
     47  CG       198.9770   -9.0760   55.8970 C.ar   57  HIS57       0.0818
     48  ND1      197.6390   -8.8660   56.1750 N.ar   57  HIS57      -0.2268
     49  CD2      199.3280   -8.1170   55.0070 C.ar   57  HIS57       0.1154
     50  CE1      197.2040   -7.8370   55.4730 C.ar   57  HIS57       0.1986
     51  NE2      198.2040   -7.3640   54.7600 N.ar   57  HIS57      -0.2212
     52  N        202.1950   -7.9510   57.5790 N.am   58  GLY58      -0.1957
     53  CA       203.2220   -7.0600   57.0880 C.3    58  GLY58       0.1869
     54  C        204.3590   -6.9870   58.0830 C.2    58  GLY58       0.2309
     55  O        205.5400   -7.0660   57.7130 O.2    58  GLY58      -0.2863
     56  N        194.8030  -10.7000   62.5530 N.3    81  ASP81      -0.1239
     57  CA       195.7910  -10.1860   61.6130 C.3    81  ASP81       0.1674
     58  C        196.2930   -8.8400   62.1490 C.2    81  ASP81       0.2266
     59  O        196.5660   -7.9170   61.3840 O.2    81  ASP81      -0.2867
     60  CB       195.1680  -10.0450   60.2120 C.3    81  ASP81       0.1410
     61  CG       196.1930   -9.7420   59.1320 C.2    81  ASP81       0.3668
     62  OD1      197.2710  -10.3690   59.1130 O.co2  81  ASP81      -0.2456
     63  OD2      195.9080   -8.8730   58.2880 O.co2  81  ASP81      -0.2456
     64  N        198.8300    5.5430   51.7130 N.3   109  ARG109     -0.1231
     65  CA       200.2310    5.9030   51.9720 C.3   109  ARG109      0.1694
     66  C        200.6830    7.1270   51.2090 C.2   109  ARG109      0.2592
     67  O        201.7430    7.6770   51.4910 O.2   109  ARG109     -0.2718
     68  CB       201.1760    4.7350   51.6410 C.3   109  ARG109      0.0321
     69  CG       201.1770    4.3320   50.1720 C.3   109  ARG109      0.0489
     70  CD       202.1970    3.2640   49.8640 C.3   109  ARG109      0.2205
     71  NE       203.5500    3.7670   50.0270 N.pl3 109  ARG109     -0.0865
     72  CZ       204.3410    3.4730   51.0500 C.cat 109  ARG109      0.5346
     73  NH1      203.9230    2.6560   52.0100 N.pl3 109  ARG109      0.1354
     74  NH2      205.5350    4.0420   51.1390 N.pl3 109  ARG109      0.1354
     75  N        199.8860    7.5450   50.2350 N.am  110  HIS110     -0.1976
     76  CA       200.2140    8.7180   49.4400 C.3   110  HIS110      0.1656
     77  C        199.4570    9.9280   49.9670 C.2   110  HIS110      0.2291
     78  O        199.4250   10.9770   49.3230 O.2   110  HIS110     -0.2864
     79  CB       199.8570    8.4620   47.9900 C.3   110  HIS110      0.0771
     80  CG       200.4490    7.1950   47.4550 C.ar  110  HIS110      0.0820
     81  ND1      201.8070    6.9780   47.3880 N.ar  110  HIS110     -0.2267
     82  CD2      199.8650    6.0610   46.9970 C.ar  110  HIS110      0.1154
     83  CE1      202.0360    5.7710   46.9140 C.ar  110  HIS110      0.1986
     84  NE2      200.8710    5.1920   46.6700 N.ar  110  HIS110     -0.2212
     85  N        183.7220   -4.8470   55.5980 N.3   123  ARG123     -0.1245
     86  CA       183.8260   -4.4460   54.2070 C.3   123  ARG123      0.1563
     87  C        183.1090   -3.1290   53.9330 C.2   123  ARG123      0.2260
     88  O        182.2050   -2.7180   54.6600 O.2   123  ARG123     -0.2867
     89  CB       183.3280   -5.5560   53.2710 C.3   123  ARG123      0.0307
     90  CG       183.6920   -5.3340   51.7910 C.3   123  ARG123      0.0489
     91  CD       183.5250   -6.5980   50.9370 C.3   123  ARG123      0.2205
     92  NE       184.3720   -7.7060   51.3950 N.pl3 123  ARG123     -0.0865
     93  CZ       184.6260   -8.8120   50.6930 C.cat 123  ARG123      0.5346
     94  NH1      184.1050   -8.9800   49.4820 N.pl3 123  ARG123      0.1354
     95  NH2      185.3850   -9.7700   51.2180 N.pl3 123  ARG123      0.1354
     96  N        194.2720   -1.6230   41.7960 N.3   132  ILE132     -0.1231
     97  CA       194.8130   -2.2050   43.0140 C.3   132  ILE132      0.1692
     98  C        196.1570   -1.5580   43.3290 C.2   132  ILE132      0.2592
     99  O        196.4820   -1.3090   44.4870 O.2   132  ILE132     -0.2718
    100  CB       194.9760   -3.7350   42.8920 C.3   132  ILE132      0.0266
    101  CG1      195.3710   -4.3160   44.2500 C.3   132  ILE132      0.0019
    102  CG2      195.9980   -4.0860   41.8190 C.3   132  ILE132      0.0020
    103  CD1      195.8600   -5.7510   44.1880 C.3   132  ILE132      0.0001
    104  N        196.8900   -1.2150   42.2760 N.am  133  SER133     -0.1952
    105  CA       198.2030   -0.5830   42.3970 C.3   133  SER133      0.1924
    106  C        198.1790    0.6650   43.2740 C.2   133  SER133      0.2314
    107  O        199.2110    1.0680   43.8160 O.2   133  SER133     -0.2863
    108  CB       198.7330   -0.2040   41.0140 C.3   133  SER133      0.2116
    109  OG       197.8220    0.6610   40.3560 O.3   133  SER133     -0.2180
    110  N        196.2100    1.0470   46.0260 N.3   135  LEU135     -0.1231
    111  CA       196.1570    0.6370   47.4090 C.3   135  LEU135      0.1693
    112  C        197.4330   -0.0520   47.9000 C.2   135  LEU135      0.2592
    113  O        197.6630   -0.1440   49.1030 O.2   135  LEU135     -0.2718
    114  CB       194.9290   -0.2460   47.6600 C.3   135  LEU135      0.0284
    115  CG       193.5080    0.3100   47.4800 C.3   135  LEU135      0.0019
    116  CD1      193.3520    1.6320   48.2070 C.3   135  LEU135      0.0001
    117  CD2      193.1780    0.4780   46.0240 C.3   135  LEU135      0.0001
    118  N        198.2810   -0.5150   46.9900 N.am  136  LYS136     -0.1966
    119  CA       199.5130   -1.1870   47.4110 C.3   136  LYS136      0.1728
    120  C        200.3280   -0.3230   48.3560 C.2   136  LYS136      0.2617
    121  O        200.5570    0.8590   48.1050 O.2   136  LYS136     -0.2715
    122  CB       200.3610   -1.6350   46.2120 C.3   136  LYS136      0.0311
    123  CG       199.8390   -2.9210   45.5470 C.3   136  LYS136      0.0038
    124  CD       200.7930   -3.4960   44.4960 C.3   136  LYS136      0.0206
    125  CE       200.9140   -2.5910   43.2690 C.3   136  LYS136      0.1093
    126  NZ       201.7550   -3.1790   42.1870 N.3   136  LYS136     -0.1314
    127  N        200.6700   -0.9030   49.4970 N.am  137  GLY137     -0.1940
    128  CA       201.4430   -0.1890   50.4930 C.3   137  GLY137      0.2014
    129  C        200.5850    0.4270   51.5770 C.2   137  GLY137      0.2640
    130  O        201.1010    0.8410   52.6020 O.2   137  GLY137     -0.2714
    131  N        199.2710    0.3900   51.4080 N.am  138  SER138     -0.1935
    132  CA       198.3810    0.9890   52.3910 C.3   138  SER138      0.2055
    133  C        197.8070    0.1280   53.5330 C.2   138  SER138      0.2643
    134  O        197.1310    0.6640   54.4210 O.2   138  SER138     -0.2714
    135  CB       197.2610    1.7500   51.6710 C.3   138  SER138      0.2130
    136  OG       197.8080    2.6840   50.7440 O.3   138  SER138     -0.2179
    137  N        198.1120   -1.1730   53.5560 N.am  139  SER139     -0.1949
    138  CA       197.6100   -2.0620   54.6150 C.3   139  SER139      0.1924
    139  C        198.0610   -1.5790   55.9820 C.2   139  SER139      0.2314
    140  O        199.2520   -1.3630   56.1970 O.2   139  SER139     -0.2863
    141  CB       198.1160   -3.4890   54.4130 C.3   139  SER139      0.2116
    142  OG       197.5480   -3.9950   53.2270 O.3   139  SER139     -0.2180
    143  N        192.8410   -0.7120   57.0880 N.3   154  PHE154     -0.1227
    144  CA       192.8150   -1.3860   55.7890 C.3   154  PHE154      0.1736
    145  C        193.6340   -2.6830   55.8570 C.2   154  PHE154      0.2595
    146  O        194.7920   -2.6650   56.2570 O.2   154  PHE154     -0.2718
    147  CB       193.3480   -0.4340   54.7160 C.3   154  PHE154      0.0547
    148  CG       193.4620   -1.0470   53.3470 C.ar  154  PHE154     -0.0202
    149  CD1      192.3880   -1.6680   52.7540 C.ar  154  PHE154     -0.0042
    150  CD2      194.6450   -0.9590   52.6340 C.ar  154  PHE154     -0.0042
    151  CE1      192.5000   -2.2190   51.4800 C.ar  154  PHE154     -0.0003
    152  CE2      194.7600   -1.5100   51.3610 C.ar  154  PHE154     -0.0003
    153  CZ       193.6870   -2.1270   50.7820 C.ar  154  PHE154     -0.0000
    154  N        193.0190   -3.8030   55.4810 N.am  155  ARG155     -0.1966
    155  CA       193.6860   -5.1040   55.5220 C.3   155  ARG155      0.1729
    156  C        193.9680   -5.7300   54.1540 C.2   155  ARG155      0.2616
    157  O        195.0780   -6.1980   53.8880 O.2   155  ARG155     -0.2715
    158  CB       192.8790   -6.0660   56.3930 C.3   155  ARG155      0.0348
    159  CG       193.1970   -7.5370   56.1950 C.3   155  ARG155      0.0492
    160  CD       192.4860   -8.3870   57.2300 C.3   155  ARG155      0.2205
    161  NE       192.3800   -9.8020   56.8700 N.pl3 155  ARG155     -0.0865
    162  CZ       193.3950  -10.5770   56.4860 C.cat 155  ARG155      0.5346
    163  NH1      194.6270  -10.0930   56.3940 N.pl3 155  ARG155      0.1354
    164  NH2      193.1770  -11.8600   56.2080 N.pl3 155  ARG155      0.1354
    165  N        192.9660   -5.7340   53.2860 N.am  156  ALA156     -0.1963
    166  CA       193.1010   -6.3100   51.9520 C.3   156  ALA156      0.1728
    167  C        192.1010   -5.6450   51.0200 C.2   156  ALA156      0.2616
    168  O        191.1210   -5.0420   51.4690 O.2   156  ALA156     -0.2715
    169  CB       192.8390   -7.8000   52.0030 C.3   156  ALA156      0.0334
    170  N        192.3520   -5.7360   49.7230 N.am  157  ALA157     -0.1963
    171  CA       191.4500   -5.1380   48.7530 C.3   157  ALA157      0.1728
    172  C        190.6600   -6.2280   48.0610 C.2   157  ALA157      0.2616
    173  O        191.0900   -7.3790   48.0010 O.2   157  ALA157     -0.2715
    174  CB       192.2330   -4.3380   47.7330 C.3   157  ALA157      0.0334
    175  N        189.4950   -5.8550   47.5480 N.am  158  VAL158     -0.1963
    176  CA       188.6300   -6.7820   46.8340 C.3   158  VAL158      0.1727
    177  C        188.7470   -6.4370   45.3400 C.2   158  VAL158      0.2616
    178  O        187.9390   -5.6780   44.7870 O.2   158  VAL158     -0.2715
    179  CB       187.1710   -6.6620   47.3280 C.3   158  VAL158      0.0290
    180  CG1      186.2940   -7.7390   46.6960 C.3   158  VAL158      0.0023
    181  CG2      187.1290   -6.7700   48.8440 C.3   158  VAL158      0.0023
    182  N        189.8050   -6.9570   44.7160 N.am  159  CYS159     -0.1968
    183  CA       190.0900   -6.7160   43.3050 C.3   159  CYS159      0.1712
    184  C        189.3600   -7.5720   42.2880 C.2   159  CYS159      0.2296
    185  O        189.1410   -8.7740   42.4770 O.2   159  CYS159     -0.2864
    186  CB       191.5920   -6.7640   43.0380 C.3   159  CYS159      0.0983
    187  SG       192.4520   -5.2600   43.5280 S.3   159  CYS159     -0.0798
    188  N        188.6240   -4.7640   52.6000 N.3   168  ASP168     -0.1239
    189  CA       188.4290   -5.4990   53.8320 C.3   168  ASP168      0.1674
    190  C        189.2410   -4.7990   54.8810 C.2   168  ASP168      0.2266
    191  O        190.4200   -4.4920   54.6590 O.2   168  ASP168     -0.2867
    192  CB       188.9190   -6.9320   53.7020 C.3   168  ASP168      0.1410
    193  CG       187.8960   -7.8360   53.0650 C.2   168  ASP168      0.3668
    194  OD1      187.1240   -7.3580   52.2050 O.co2 168  ASP168     -0.2456
    195  OD2      187.8560   -9.0280   53.4340 O.co2 168  ASP168     -0.2456
@<TRIPOS>BOND
     1   109   108    1
     2   108   105    1
     3    96    97    1
     4   102   100    1
     5   126   125    1
     6   104   105    1
     7   104    98   am
     8   184   185    2
     9   184   183    1
    10   105   106    1
    11   100    97    1
    12   100   101    1
    13    97    98    1
    14   186   183    1
    15   186   187    1
    16   125   124    1
    17   106   107    2
    18   183   182    1
    19    98    99    2
    20   103   101    1
    21   124   123    1
    22   182   177   am
    23   178   177    2
    24   177   176    1
    25   123   122    1
    26   117   115    1
    27   110   111    1
    28   122   119    1
    29    84    83   ar
    30    84    82   ar
    31   180   179    1
    32   176   179    1
    33   176   175    1
    34    83    81   ar
    35   118   119    1
    36   118   112   am
    37    82    80   ar
    38   179   181    1
    39    81    80   ar
    40   111   114    1
    41   111   112    1
    42   119   120    1
    43    80    79    1
    44   115   114    1
    45   115   116    1
    46   175   172   am
    47   174   171    1
    48   112   113    2
    49    79    76    1
    50   173   172    2
    51   172   171    1
    52   121   120    2
    53   120   127   am
    54   171   170    1
    55    78    77    2
    56    76    77    1
    57    76    75    1
    58    94    93    1
    59   127   128    1
    60   170   167   am
    61    70    71    1
    62    70    69    1
    63    71    72    2
    64    69    68    1
    65    75    66   am
    66   128   129    1
    67     4     3    2
    68    93    95    1
    69    93    92    2
    70   136   135    1
    71   153   152   ar
    72   153   151   ar
    73    91    92    1
    74    91    90    1
    75   167   168    2
    76   167   166    1
    77    72    74    1
    78    72    73    1
    79    23    21    1
    80    66    67    2
    81    66    65    1
    82   152   150   ar
    83   131   129   am
    84   131   132    1
    85   151   149   ar
    86   129   130    2
    87    68    65    1
    88   135   132    1
    89    64    65    1
    90     3     2    1
    91     3     8   am
    92    90    89    1
    93   166   169    1
    94   166   165    1
    95     9    12    1
    96     9     8    1
    97     9    10    1
    98    12    13    1
    99    20    19    2
   100   194   193   ar
   101     2     5    1
   102     2     1    1
   103    17    10   am
   104    17    18    1
   105   132   133    1
   106    21    18    1
   107    21    22    1
   108   188   189    1
   109   150   148   ar
   110   149   148   ar
   111     5     7    1
   112     5     6    1
   113    15    14    2
   114    10    11    2
   115   193   195   ar
   116   193   192    1
   117    18    19    1
   118    19    24   am
   119   142   141    1
   120    89    86    1
   121   165   156   am
   122   148   147    1
   123    13    14    1
   124   133   137   am
   125   133   134    2
   126   137   138    1
   127    14    16   am
   128   192   189    1
   129   189   190    1
   130   157   156    2
   131    87    86    1
   132    87    88    2
   133   156   155    1
   134    86    85    1
   135    24    25    1
   136   141   138    1
   137    25    28    1
   138    25    26    1
   139   138   139    1
   140   191   190    2
   141   147   144    1
   142    51    49   ar
   143    51    50   ar
   144    28    29    1
   145    49    47   ar
   146    50    48   ar
   147   154   155    1
   148   154   145   am
   149   155   158    1
   150    26    27    2
   151    30    29   ar
   152    30    32   ar
   153    45    44    2
   154   144   145    1
   155   144   143    1
   156   145   146    2
   157    47    48   ar
   158    47    46    1
   159    29    31   ar
   160   139   140    2
   161   159   158    1
   162   159   160    1
   163   164   162    1
   164   163   162    1
   165    46    43    1
   166   162   161    2
   167    32    34   ar
   168   161   160    1
   169    44    43    1
   170    44    52   am
   171    53    52    1
   172    53    54    1
   173    31    33   ar
   174    40    39    1
   175    43    42    1
   176    55    54    2
   177    34    33   ar
   178    41    39    1
   179    63    61   ar
   180    39    36    1
   181    62    61   ar
   182    61    60    1
   183    38    37    2
   184    36    37    1
   185    36    35    1
   186    60    57    1
   187    59    58    2
   188    57    58    1
   189    57    56    1
