@<TRIPOS>MOLECULE
tmp/2fmbA00.pdb
 90 83 0 0 0
SMALL
GASTEIGER

@<TRIPOS>ATOM
      1  N         -7.9040   13.0300    5.6950 N.3    23  LEU23      -0.1245
      2  CA        -7.2970   12.6520    4.4170 C.3    23  LEU23       0.1561
      3  C         -6.0240   11.8730    4.7480 C.2    23  LEU23       0.2260
      4  O         -5.2900   12.3710    5.6100 O.2    23  LEU23      -0.2867
      5  CB        -6.9090   13.8630    3.5670 C.3    23  LEU23       0.0270
      6  CG        -6.1340   13.6510    2.2710 C.3    23  LEU23       0.0019
      7  CD1       -6.9530   12.8650    1.2860 C.3    23  LEU23       0.0001
      8  CD2       -5.7650   15.0030    1.6600 C.3    23  LEU23       0.0001
      9  N         -2.4620   11.2170    3.8010 N.3    25  ASP25      -0.1239
     10  CA        -1.5690   11.9330    2.9010 C.3    25  ASP25       0.1674
     11  C         -0.0910   11.6320    2.9860 C.2    25  ASP25       0.2266
     12  O          0.5700   12.1170    3.9200 O.2    25  ASP25      -0.2867
     13  CB        -1.8300   13.4380    3.1600 C.3    25  ASP25       0.1410
     14  CG        -1.1190   14.4010    2.2310 C.2    25  ASP25       0.3668
     15  OD1       -0.4510   13.9630    1.2940 O.co2  25  ASP25      -0.2456
     16  OD2       -1.2240   15.5900    2.5310 O.co2  25  ASP25      -0.2456
     17  N          2.2070   12.6420    1.1400 N.3    27  GLY27      -0.1210
     18  CA         2.9490   13.8680    0.8370 C.3    27  GLY27       0.1956
     19  C          2.9880   14.7870    2.0300 C.2    27  GLY27       0.2612
     20  O          3.4580   15.9120    1.8080 O.2    27  GLY27      -0.2717
     21  N          2.4960   14.4730    3.2360 N.am   28  ALA28      -0.1965
     22  CA         2.5110   15.4070    4.3540 C.3    28  ALA28       0.1728
     23  C          3.4700   14.7820    5.3390 C.2    28  ALA28       0.2616
     24  O          3.3810   13.6380    5.7960 O.2    28  ALA28      -0.2715
     25  CB         1.1040   15.5470    4.9930 C.3    28  ALA28       0.0334
     26  N          4.4820   15.6030    5.7160 N.am   29  ASP29      -0.1957
     27  CA         5.4790   15.1470    6.6680 C.3    29  ASP29       0.1840
     28  C          4.9380   14.9460    8.0880 C.2    29  ASP29       0.2622
     29  O          5.4380   14.1140    8.8520 O.2    29  ASP29      -0.2715
     30  CB         6.5980   16.1940    6.8660 C.3    29  ASP29       0.1450
     31  CG         7.4660   16.2810    5.6210 C.2    29  ASP29       0.3671
     32  OD1        7.5760   15.3980    4.7500 O.co2  29  ASP29      -0.2456
     33  OD2        8.1210   17.3150    5.5200 O.co2  29  ASP29      -0.2456
     34  N          3.9240   15.7450    8.3640 N.am   30  THR30      -0.1951
     35  CA         3.3290   15.7510    9.6940 C.3    30  THR30       0.1897
     36  C          1.8180   15.9610    9.5730 C.2    30  THR30       0.2313
     37  O          1.3010   16.4070    8.5540 O.2    30  THR30      -0.2863
     38  CB         4.0520   16.8800   10.4820 C.3    30  THR30       0.1794
     39  OG1        3.6400   16.7240   11.8360 O.3    30  THR30      -0.2208
     40  CG2        3.5440   18.2440   10.0790 C.3    30  THR30       0.0378
     41  N         -1.9840   17.4680   10.4450 N.3    32  VAL32      -0.1245
     42  CA        -2.5010   18.7820   10.8130 C.3    32  VAL32       0.1561
     43  C         -4.0200   18.7430   10.8960 C.2    32  VAL32       0.2260
     44  O         -4.7300   18.3110   10.0050 O.2    32  VAL32      -0.2867
     45  CB        -2.1530   19.7750    9.6590 C.3    32  VAL32       0.0252
     46  CG1       -2.4900   21.2270   10.0160 C.3    32  VAL32       0.0019
     47  CG2       -0.6340   19.7160    9.4000 C.3    32  VAL32       0.0019
     48  N          5.1660   26.8630   11.9540 N.3    52  GLY52      -0.1210
     49  CA         4.5850   26.7470   10.6770 C.3    52  GLY52       0.1956
     50  C          4.8590   25.5190    9.8710 C.2    52  GLY52       0.2612
     51  O          5.5960   24.6080   10.2370 O.2    52  GLY52      -0.2717
     52  N          4.1410   25.4970    8.7610 N.am   53  ILE53      -0.1965
     53  CA         4.2940   24.4130    7.7980 C.3    53  ILE53       0.1727
     54  C          4.2080   25.0770    6.4340 C.2    53  ILE53       0.2617
     55  O          3.6180   26.1630    6.3130 O.2    53  ILE53      -0.2715
     56  CB         3.1840   23.3210    7.8720 C.3    53  ILE53       0.0290
     57  CG1        1.8560   24.0350    7.7840 C.3    53  ILE53       0.0022
     58  CG2        3.3790   22.3820    9.0300 C.3    53  ILE53       0.0023
     59  CD1        0.6800   23.1440    7.5480 C.3    53  ILE53       0.0001
     60  N          4.6600   24.3970    5.3920 N.am   54  GLY54      -0.1940
     61  CA         4.6200   24.9080    4.0430 C.3    54  GLY54       0.2014
     62  C          3.9790   23.8870    3.1300 C.2    54  GLY54       0.2639
     63  O          3.9100   22.6940    3.4360 O.2    54  GLY54      -0.2714
     64  N          3.5050   24.4600    2.0380 N.am   55  GLY55      -0.1939
     65  CA         2.8180   23.6320    1.0320 C.3    55  GLY55       0.2014
     66  C          2.8700   24.4670   -0.2560 C.2    55  GLY55       0.2638
     67  O          3.6780   25.4290   -0.4380 O.2    55  GLY55      -0.2714
     68  N          2.0150   24.0390   -1.1720 N.am   56  VAL56      -0.1977
     69  CA         1.9120   24.6270   -2.5060 C.3    56  VAL56       0.1596
     70  C          1.7330   26.1390   -2.4730 C.2    56  VAL56       0.2287
     71  O          2.3630   26.8390   -3.2780 O.2    56  VAL56      -0.2864
     72  CB         0.7690   23.8680   -3.2140 C.3    56  VAL56       0.0276
     73  CG1       -0.0690   24.6970   -4.1610 C.3    56  VAL56       0.0022
     74  CG2        1.3170   22.6490   -3.9530 C.3    56  VAL56       0.0022
     75  N         -6.2370   25.1960    7.3720 N.3    85  ILE85      -0.1245
     76  CA        -6.0220   24.4870    6.1120 C.3    85  ILE85       0.1561
     77  C         -7.3760   23.9100    5.7260 C.2    85  ILE85       0.2260
     78  O         -8.2790   23.7930    6.5310 O.2    85  ILE85      -0.2867
     79  CB        -4.8740   23.4910    6.1560 C.3    85  ILE85       0.0252
     80  CG1       -5.1830   22.3660    7.1520 C.3    85  ILE85       0.0019
     81  CG2       -3.5880   24.2290    6.5840 C.3    85  ILE85       0.0019
     82  CD1       -4.2810   21.1520    6.9630 C.3    85  ILE85       0.0001
     83  N         -5.4890   16.4760    7.8810 N.3    89  ILE89      -0.1245
     84  CA        -4.6300   15.4660    7.1830 C.3    89  ILE89       0.1561
     85  C         -3.8350   14.6570    8.1690 C.2    89  ILE89       0.2260
     86  O         -3.2780   15.1550    9.1550 O.2    89  ILE89      -0.2867
     87  CB        -3.6420   16.3680    6.3710 C.3    89  ILE89       0.0252
     88  CG1       -4.4610   17.0000    5.2220 C.3    89  ILE89       0.0019
     89  CG2       -2.5510   15.5320    5.7360 C.3    89  ILE89       0.0019
     90  CD1       -3.5860   17.8790    4.3690 C.3    89  ILE89       0.0001
@<TRIPOS>BOND
     1    73    72    1
     2    74    72    1
     3    71    70    2
     4    72    69    1
     5    69    70    1
     6    69    68    1
     7    68    66   am
     8    67    66    2
     9    66    65    1
    10    18    17    1
    11    18    19    1
    12    65    64    1
    13     7     6    1
    14    15    14   ar
    15     8     6    1
    16    20    19    2
    17    19    21   am
    18    64    62   am
    19    14    16   ar
    20    14    13    1
    21     6     5    1
    22    10    11    1
    23    10    13    1
    24    10     9    1
    25    11    12    2
    26    62    63    2
    27    62    61    1
    28    21    22    1
    29     5     2    1
    30    61    60    1
    31    22    25    1
    32    22    23    1
    33    90    88    1
    34     2     3    1
    35     2     1    1
    36     3     4    2
    37    32    31   ar
    38    88    87    1
    39    23    26   am
    40    23    24    2
    41    60    54   am
    42    33    31   ar
    43    31    30    1
    44    26    27    1
    45    77    76    1
    46    77    78    2
    47    89    87    1
    48    76    79    1
    49    76    75    1
    50    79    81    1
    51    79    80    1
    52    55    54    2
    53    87    84    1
    54    54    53    1
    55    27    30    1
    56    27    28    1
    57    82    80    1
    58    84    83    1
    59    84    85    1
    60    59    57    1
    61    57    56    1
    62    53    56    1
    63    53    52    1
    64    56    58    1
    65    28    34   am
    66    28    29    2
    67    85    86    2
    68    34    35    1
    69    37    36    2
    70    52    50   am
    71    47    45    1
    72    36    35    1
    73    45    46    1
    74    45    42    1
    75    35    38    1
    76    50    51    2
    77    50    49    1
    78    44    43    2
    79    40    38    1
    80    41    42    1
    81    38    39    1
    82    49    48    1
    83    42    43    1
