@<TRIPOS>MOLECULE
tmp/2fmdA00.pdb
 92 90 0 0 0
SMALL
GASTEIGER

@<TRIPOS>ATOM
      1  N         19.0280   19.5430   25.0600 N.3    85  ALA85      -0.1231
      2  CA        19.7050   20.0620   23.8740 C.3    85  ALA85       0.1694
      3  C         20.2710   18.8580   23.1170 C.2    85  ALA85       0.2592
      4  O         20.5730   17.8330   23.7320 O.2    85  ALA85      -0.2718
      5  CB        20.8220   21.0150   24.2750 C.3    85  ALA85       0.0304
      6  N         20.4080   18.9500   21.7970 N.am   86  ASP86      -0.1974
      7  CA        20.0600   20.1240   20.9990 C.3    86  ASP86       0.1709
      8  C         18.8260   19.9290   20.1320 C.2    86  ASP86       0.2293
      9  O         18.0670   20.8690   19.9190 O.2    86  ASP86      -0.2864
     10  CB        21.2310   20.4930   20.1020 C.3    86  ASP86       0.1436
     11  CG        22.1910   21.4380   20.7750 C.2    86  ASP86       0.3671
     12  OD1       21.8820   22.6470   20.7910 O.co2  86  ASP86      -0.2456
     13  OD2       23.2240   20.9690   21.2970 O.co2  86  ASP86      -0.2456
     14  N         28.2160   19.9560   14.8910 N.3   104  GLY104     -0.1210
     15  CA        27.7350   19.5910   16.2130 C.3   104  GLY104      0.1956
     16  C         26.7980   20.5750   16.8990 C.2   104  GLY104      0.2612
     17  O         26.5550   21.6790   16.4110 O.2   104  GLY104     -0.2717
     18  N         26.2690   20.1510   18.0430 N.am  105  GLY105     -0.1942
     19  CA        25.3760   20.9930   18.8220 C.3   105  GLY105      0.2014
     20  C         24.2640   21.6840   18.0520 C.2   105  GLY105      0.2638
     21  O         23.4350   21.0290   17.4240 O.2   105  GLY105     -0.2714
     22  N         24.2590   23.0130   18.1000 N.am  106  ARG106     -0.1977
     23  CA        23.2340   23.8160   17.4370 C.3   106  ARG106      0.1597
     24  C         23.0610   23.5980   15.9290 C.2   106  ARG106      0.2287
     25  O         22.1030   24.1040   15.3460 O.2   106  ARG106     -0.2864
     26  CB        23.4950   25.2980   17.6940 C.3   106  ARG106      0.0334
     27  CG        24.7770   25.8150   17.0620 C.3   106  ARG106      0.0492
     28  CD        24.9950   27.2870   17.3830 C.3   106  ARG106      0.2205
     29  NE        26.1430   27.8310   16.6630 N.pl3 106  ARG106     -0.0865
     30  CZ        26.5380   29.1000   16.7290 C.cat 106  ARG106      0.5346
     31  NH1       25.8790   29.9640   17.4890 N.pl3 106  ARG106      0.1354
     32  NH2       27.5790   29.5100   16.0160 N.pl3 106  ARG106      0.1354
     33  N         16.5680   23.4040   22.0850 N.3   127  TYR127     -0.1228
     34  CA        17.3940   24.4280   22.7230 C.3   127  TYR127      0.1721
     35  C         17.4940   25.6900   21.8730 C.2   127  TYR127      0.2437
     36  O         18.1220   25.6960   20.8210 O.2   127  TYR127     -0.2733
     37  CB        18.7980   23.8830   22.9700 C.3   127  TYR127      0.0547
     38  CG        19.6600   24.7910   23.8190 C.ar  127  TYR127     -0.0200
     39  CD1       19.4420   24.9000   25.1900 C.ar  127  TYR127     -0.0009
     40  CD2       20.6820   25.5500   23.2520 C.ar  127  TYR127     -0.0009
     41  CE1       20.2230   25.7420   25.9820 C.ar  127  TYR127      0.0417
     42  CE2       21.4720   26.4000   24.0340 C.ar  127  TYR127      0.0417
     43  CZ        21.2350   26.4880   25.3990 C.ar  127  TYR127      0.1957
     44  OH        22.0110   27.3090   26.1870 O.3   127  TYR127     -0.2866
     45  N         16.8670   26.7830   22.3180 N.am  128  PRO128     -0.2718
     46  CA        16.9220   28.0270   21.5540 C.3   128  PRO128      0.1535
     47  C         18.3250   28.6210   21.4500 C.2   128  PRO128      0.2598
     48  O         18.9490   28.9370   22.4640 O.2   128  PRO128     -0.2715
     49  CB        15.9770   28.9390   22.3360 C.3   128  PRO128      0.0310
     50  CG        15.0120   27.9450   22.9810 C.3   128  PRO128      0.0237
     51  CD        16.0280   26.9680   23.5110 C.3   128  PRO128      0.0939
     52  N         18.8200   28.7470   20.2210 N.am  129  ASN129     -0.1973
     53  CA        20.1200   29.3600   19.9630 C.3   129  ASN129      0.1688
     54  C         19.7740   30.6410   19.2090 C.2   129  ASN129      0.2292
     55  O         19.8770   30.7020   17.9830 O.2   129  ASN129     -0.2864
     56  CB        21.0160   28.4680   19.0910 C.3   129  ASN129      0.1181
     57  CG        21.3460   27.1380   19.7470 C.2   129  ASN129      0.2629
     58  OD1       20.5620   26.1950   19.6910 O.2   129  ASN129     -0.2716
     59  ND2       22.5060   27.0670   20.3980 N.am  129  ASN129     -0.0877
     60  N         21.2280   33.5290   18.7630 N.3   131  ASP131     -0.1239
     61  CA        22.2020   34.2370   17.9390 C.3   131  ASP131      0.1674
     62  C         22.2420   33.7010   16.5060 C.2   131  ASP131      0.2266
     63  O         22.8620   34.3090   15.6330 O.2   131  ASP131     -0.2867
     64  CB        23.6000   34.1870   18.5700 C.3   131  ASP131      0.1410
     65  CG        24.1970   32.8000   18.5690 C.2   131  ASP131      0.3668
     66  OD1       23.5680   31.8790   19.1310 O.co2 131  ASP131     -0.2456
     67  OD2       25.3040   32.6360   18.0100 O.co2 131  ASP131     -0.2456
     68  N         24.9380   19.1440   22.7770 N.3   211  GLY211     -0.1210
     69  CA        26.0760   20.0460   22.7600 C.3   211  GLY211      0.1956
     70  C         26.6020   20.1030   24.1750 C.2   211  GLY211      0.2612
     71  O         27.0920   19.1040   24.7060 O.2   211  GLY211     -0.2717
     72  N         26.5090   21.2710   24.7930 N.am  212  GLN212     -0.1965
     73  CA        26.9240   21.3960   26.1780 C.3   212  GLN212      0.1733
     74  C         25.8380   20.6710   26.9650 C.2   212  GLN212      0.2616
     75  O         26.1180   19.9440   27.9180 O.2   212  GLN212     -0.2715
     76  CB        26.9860   22.8660   26.5890 C.3   212  GLN212      0.0408
     77  CG        26.9470   23.0850   28.0960 C.3   212  GLN212      0.0908
     78  CD        27.0960   24.5420   28.4790 C.2   212  GLN212      0.2608
     79  OE1       26.6620   25.4280   27.7510 O.2   212  GLN212     -0.2717
     80  NE2       27.6830   24.7960   29.6420 N.am  212  GLN212     -0.0878
     81  N         24.5920   20.8690   26.5440 N.am  213  TYR213     -0.1974
     82  CA        23.4580   20.2360   27.1990 C.3   213  TYR213      0.1639
     83  C         23.0570   18.9560   26.4670 C.2   213  TYR213      0.2290
     84  O         23.3720   18.7750   25.2950 O.2   213  TYR213     -0.2864
     85  CB        22.3180   21.2450   27.3150 C.3   213  TYR213      0.0560
     86  CG        22.7170   22.3770   28.2370 C.ar  213  TYR213     -0.0198
     87  CD1       23.0490   22.1170   29.5690 C.ar  213  TYR213     -0.0009
     88  CD2       22.8440   23.6870   27.7690 C.ar  213  TYR213     -0.0009
     89  CE1       23.5020   23.1270   30.4130 C.ar  213  TYR213      0.0417
     90  CE2       23.2980   24.7090   28.6090 C.ar  213  TYR213      0.0417
     91  CZ        23.6250   24.4160   29.9260 C.ar  213  TYR213      0.1957
     92  OH        24.0830   25.3990   30.7640 O.3   213  TYR213     -0.2866
@<TRIPOS>BOND
     1    14    15    1
     2    25    24    2
     3    63    62    2
     4    24    23    1
     5    32    30    1
     6    15    16    1
     7    17    16    2
     8    62    61    1
     9    29    30    2
    10    29    28    1
    11    30    31    1
    12    16    18   am
    13    27    28    1
    14    27    26    1
    15    21    20    2
    16    23    26    1
    17    23    22    1
    18    61    64    1
    19    61    60    1
    20    55    54    2
    21    67    65   ar
    22    18    19    1
    23    20    22   am
    24    20    19    1
    25    65    64    1
    26    65    66   ar
    27    56    57    1
    28    56    53    1
    29    54    53    1
    30    58    57    2
    31    57    59   am
    32     9     8    2
    33    53    52    1
    34    10    11    1
    35    10     7    1
    36     8     7    1
    37    52    47   am
    38    11    12   ar
    39    11    13   ar
    40    36    35    2
    41     7     6    1
    42    47    46    1
    43    47    48    2
    44    46    45    1
    45    46    49    1
    46     6     3   am
    47    35    45   am
    48    35    34    1
    49    33    34    1
    50    45    51    1
    51    49    50    1
    52    34    37    1
    53    69    68    1
    54    69    70    1
    55    37    38    1
    56    50    51    1
    57     3     4    2
    58     3     2    1
    59    40    38   ar
    60    40    42   ar
    61    38    39   ar
    62     2     5    1
    63     2     1    1
    64    42    43   ar
    65    70    71    2
    66    70    72   am
    67    72    73    1
    68    39    41   ar
    69    84    83    2
    70    43    41   ar
    71    43    44    1
    72    73    76    1
    73    73    74    1
    74    83    82    1
    75    81    74   am
    76    81    82    1
    77    76    77    1
    78    74    75    2
    79    82    85    1
    80    85    86    1
    81    79    78    2
    82    88    86   ar
    83    88    90   ar
    84    77    78    1
    85    86    87   ar
    86    78    80   am
    87    90    91   ar
    88    87    89   ar
    89    91    89   ar
    90    91    92    1
