@<TRIPOS>MOLECULE
tmp/2fmeA00.pdb
 143 137 0 0 0
SMALL
GASTEIGER

@<TRIPOS>ATOM
      1  N         21.6290   75.3260   46.6320 N.3    96  GLU96      -0.1231
      2  CA        22.3400   76.5500   46.9840 C.3    96  GLU96       0.1699
      3  C         23.2870   76.3830   48.1720 C.2    96  GLU96       0.2593
      4  O         24.4510   76.7750   48.1100 O.2    96  GLU96      -0.2718
      5  CB        21.3310   77.6690   47.2760 C.3    96  GLU96       0.0402
      6  CG        20.4420   78.0410   46.0790 C.3    96  GLU96       0.1161
      7  CD        19.5690   79.2670   46.3310 C.2    96  GLU96       0.3649
      8  OE1       19.5250   79.7730   47.4660 O.co2  96  GLU96      -0.2457
      9  OE2       18.9170   79.7230   45.3810 O.co2  96  GLU96      -0.2457
     10  N         22.7850   75.7900   49.2480 N.am   97  GLY97      -0.1942
     11  CA        23.6010   75.6000   50.4320 C.3    97  GLY97       0.2014
     12  C         23.4270   76.7470   51.4130 C.2    97  GLY97       0.2639
     13  O         22.6080   77.6390   51.1980 O.2    97  GLY97      -0.2714
     14  N         24.2250   76.7320   52.4780 N.am   98  GLU98      -0.1963
     15  CA        24.1630   77.7510   53.5120 C.3    98  GLU98       0.1733
     16  C         25.5740   78.1360   53.9550 C.2    98  GLU98       0.2616
     17  O         26.5610   77.4960   53.5640 O.2    98  GLU98      -0.2715
     18  CB        23.3810   77.2160   54.7200 C.3    98  GLU98       0.0429
     19  CG        21.9070   76.9060   54.4540 C.3    98  GLU98       0.1163
     20  CD        21.2730   76.0800   55.5690 C.2    98  GLU98       0.3649
     21  OE1       21.8390   76.0400   56.6800 O.co2  98  GLU98      -0.2457
     22  OE2       20.2110   75.4700   55.3410 O.co2  98  GLU98      -0.2457
     23  N         25.6680   79.1850   54.7680 N.am   99  ARG99      -0.1977
     24  CA        26.9520   79.6270   55.2870 C.3    99  ARG99       0.1597
     25  C         27.1550   79.0090   56.6700 C.2    99  ARG99       0.2287
     26  O         26.2320   78.9610   57.4800 O.2    99  ARG99      -0.2864
     27  CB        26.9900   81.1540   55.4190 C.3    99  ARG99       0.0334
     28  CG        26.7920   81.9200   54.1120 C.3    99  ARG99       0.0492
     29  CD        27.8810   81.6080   53.1210 C.3    99  ARG99       0.2205
     30  NE        29.1730   82.1070   53.5920 N.pl3  99  ARG99      -0.0865
     31  CZ        30.2880   81.4000   53.5470 C.cat  99  ARG99       0.5346
     32  NH1       30.2520   80.1780   53.0470 N.pl3  99  ARG99       0.1354
     33  NH2       31.4190   81.8900   54.0210 N.pl3  99  ARG99       0.1354
     34  N         33.2930   81.8340   51.5290 N.3   107  TRP107     -0.1241
     35  CA        32.3430   81.0780   50.7160 C.3   107  TRP107      0.1605
     36  C         32.9040   79.9230   49.8910 C.2   107  TRP107      0.2264
     37  O         32.2950   78.8620   49.8140 O.2   107  TRP107     -0.2867
     38  CB        31.5630   82.0210   49.7940 C.3   107  TRP107      0.0550
     39  CG        32.3520   82.5190   48.6350 C.ar  107  TRP107      0.0003
     40  CD1       33.1720   83.6170   48.6000 C.ar  107  TRP107      0.0946
     41  CD2       32.4120   81.9340   47.3370 C.ar  107  TRP107      0.0152
     42  NE1       33.7330   83.7440   47.3510 N.ar  107  TRP107     -0.2442
     43  CE2       33.2830   82.7200   46.5570 C.ar  107  TRP107      0.0810
     44  CE3       31.8150   80.8150   46.7530 C.ar  107  TRP107      0.0012
     45  CZ2       33.5670   82.4280   45.2320 C.ar  107  TRP107      0.0191
     46  CZ3       32.0990   80.5250   45.4360 C.ar  107  TRP107      0.0001
     47  CH2       32.9660   81.3280   44.6900 C.ar  107  TRP107      0.0015
     48  N         33.3730   76.9400   52.2570 N.3   110  ASP110     -0.1239
     49  CA        32.3450   76.5980   53.2230 C.3   110  ASP110      0.1674
     50  C         31.8190   75.2010   52.9230 C.2   110  ASP110      0.2266
     51  O         31.2880   74.9430   51.8540 O.2   110  ASP110     -0.2867
     52  CB        31.2190   77.6260   53.1760 C.3   110  ASP110      0.1410
     53  CG        30.3060   77.5470   54.3820 C.2   110  ASP110      0.3668
     54  OD1       29.9680   78.6170   54.9220 O.co2 110  ASP110     -0.2456
     55  OD2       29.9200   76.4230   54.7860 O.co2 110  ASP110     -0.2456
     56  N         28.3620   74.9780   51.5310 N.3   113  ALA113     -0.1245
     57  CA        28.0550   75.5390   50.2270 C.3   113  ALA113      0.1562
     58  C         27.3980   74.4320   49.4050 C.2   113  ALA113      0.2260
     59  O         27.8030   73.2740   49.4760 O.2   113  ALA113     -0.2867
     60  CB        29.3250   76.0300   49.5430 C.3   113  ALA113      0.0290
     61  N         25.2780   75.2460   43.3350 N.3   116  ILE116     -0.1231
     62  CA        25.5220   76.4720   42.5750 C.3   116  ILE116      0.1678
     63  C         26.8780   77.1370   42.8570 C.2   116  ILE116      0.2434
     64  O         27.6720   77.3590   41.9370 O.2   116  ILE116     -0.2733
     65  CB        24.4100   77.5110   42.8250 C.3   116  ILE116      0.0265
     66  CG1       23.0820   77.0140   42.2330 C.3   116  ILE116      0.0019
     67  CG2       24.8090   78.8600   42.2170 C.3   116  ILE116      0.0020
     68  CD1       21.8970   77.9140   42.5400 C.3   116  ILE116      0.0001
     69  N         27.1630   77.4670   44.1300 N.am  117  PRO117     -0.2729
     70  CA        28.4470   78.1070   44.4370 C.3   117  PRO117      0.1401
     71  C         29.6550   77.2560   44.0710 C.2   117  PRO117      0.2269
     72  O         30.6320   77.7620   43.5300 O.2   117  PRO117     -0.2865
     73  CB        28.3550   78.3810   45.9360 C.3   117  PRO117      0.0296
     74  CG        27.4570   77.2900   46.4270 C.3   117  PRO117      0.0237
     75  CD        26.3900   77.2220   45.3590 C.3   117  PRO117      0.0939
     76  N         19.3190   84.5380   37.3890 N.3   140  LEU140     -0.1245
     77  CA        18.5120   83.8790   38.4000 C.3   140  LEU140      0.1561
     78  C         17.0950   84.3930   38.2950 C.2   140  LEU140      0.2260
     79  O         16.7860   85.5160   38.7200 O.2   140  LEU140     -0.2867
     80  CB        19.0620   84.1500   39.8070 C.3   140  LEU140      0.0270
     81  CG        18.2310   83.5740   40.9670 C.3   140  LEU140      0.0019
     82  CD1       17.9270   82.1050   40.7120 C.3   140  LEU140      0.0001
     83  CD2       18.9930   83.7300   42.2830 C.3   140  LEU140      0.0001
     84  N         30.6050   85.5210   44.6330 N.3   191  TYR191     -0.1241
     85  CA        29.8590   85.7130   45.8670 C.3   191  TYR191      0.1605
     86  C         28.9500   86.9300   45.9500 C.2   191  TYR191      0.2264
     87  O         27.8120   86.8160   46.3790 O.2   191  TYR191     -0.2867
     88  CB        30.7900   85.7120   47.0840 C.3   191  TYR191      0.0534
     89  CG        30.0080   85.4750   48.3530 C.ar  191  TYR191     -0.0201
     90  CD1       30.0120   86.3940   49.3860 C.ar  191  TYR191     -0.0009
     91  CD2       29.2170   84.3380   48.4880 C.ar  191  TYR191     -0.0009
     92  CE1       29.2390   86.1880   50.5290 C.ar  191  TYR191      0.0417
     93  CE2       28.4480   84.1230   49.6130 C.ar  191  TYR191      0.0417
     94  CZ        28.4600   85.0460   50.6300 C.ar  191  TYR191      0.1957
     95  OH        27.7060   84.8140   51.7530 O.3   191  TYR191     -0.2866
     96  N         25.7700   86.4360   44.3750 N.3   194  LEU194     -0.1231
     97  CA        24.8860   85.5930   45.1560 C.3   194  LEU194      0.1693
     98  C         24.2460   86.4110   46.2750 C.2   194  LEU194      0.2591
     99  O         23.0560   86.2770   46.5540 O.2   194  LEU194     -0.2718
    100  CB        25.6500   84.4070   45.7290 C.3   194  LEU194      0.0284
    101  CG        26.2570   83.4590   44.6970 C.3   194  LEU194      0.0019
    102  CD1       26.8580   82.2920   45.4140 C.3   194  LEU194      0.0001
    103  CD2       25.1890   82.9830   43.7080 C.3   194  LEU194      0.0001
    104  N         25.0300   87.2650   46.9180 N.am  195  GLU195     -0.1979
    105  CA        24.4890   88.1020   47.9850 C.3   195  GLU195      0.1602
    106  C         23.3790   89.0070   47.4390 C.2   195  GLU195      0.2287
    107  O         22.3730   89.2490   48.1090 O.2   195  GLU195     -0.2864
    108  CB        25.5790   88.9740   48.5840 C.3   195  GLU195      0.0415
    109  CG        26.7460   88.2140   49.1630 C.3   195  GLU195      0.1163
    110  CD        27.7550   89.1390   49.7860 C.2   195  GLU195      0.3649
    111  OE1       27.6890   89.3680   51.0180 O.co2 195  GLU195     -0.2457
    112  OE2       28.6020   89.6490   49.0290 O.co2 195  GLU195     -0.2457
    113  N         21.4950   88.3590   44.9090 N.3   197  GLY197     -0.1210
    114  CA        20.3410   87.5150   44.6780 C.3   197  GLY197      0.1956
    115  C         19.6250   87.2560   45.9880 C.2   197  GLY197      0.2611
    116  O         18.3930   87.3160   46.0610 O.2   197  GLY197     -0.2717
    117  N         20.4070   86.9760   47.0290 N.am  198  ALA198     -0.1979
    118  CA        19.8650   86.6940   48.3510 C.3   198  ALA198      0.1597
    119  C         19.0540   87.8760   48.8690 C.2   198  ALA198      0.2287
    120  O         17.9770   87.6990   49.4290 O.2   198  ALA198     -0.2864
    121  CB        20.9920   86.3690   49.3220 C.3   198  ALA198      0.0319
    122  N         15.6930   88.3890   47.1180 N.3   201  ARG201     -0.1245
    123  CA        14.7590   87.3280   47.4480 C.3   201  ARG201      0.1563
    124  C         14.0800   87.6950   48.7550 C.2   201  ARG201      0.2260
    125  O         12.8780   87.4910   48.9290 O.2   201  ARG201     -0.2867
    126  CB        15.4820   85.9970   47.5840 C.3   201  ARG201      0.0307
    127  CG        14.5430   84.8390   47.8060 C.3   201  ARG201      0.0489
    128  CD        15.3180   83.5540   47.9290 C.3   201  ARG201      0.2205
    129  NE        15.9590   83.2170   46.6690 N.pl3 201  ARG201     -0.0865
    130  CZ        16.8970   82.2870   46.5380 C.cat 201  ARG201      0.5346
    131  NH1       17.3080   81.6100   47.6010 N.pl3 201  ARG201      0.1354
    132  NH2       17.4070   82.0230   45.3440 N.pl3 201  ARG201      0.1354
    133  N         18.4420   78.9700   38.4300 N.3   219  PHE219     -0.1241
    134  CA        19.7440   79.6190   38.3430 C.3   219  PHE219      0.1605
    135  C         20.4390   79.0150   37.1370 C.2   219  PHE219      0.2264
    136  O         20.6810   77.8120   37.0940 O.2   219  PHE219     -0.2867
    137  CB        20.5670   79.3700   39.6070 C.3   219  PHE219      0.0534
    138  CG        21.8120   80.2090   39.6900 C.ar  219  PHE219     -0.0203
    139  CD1       22.9200   79.9220   38.8960 C.ar  219  PHE219     -0.0042
    140  CD2       21.8710   81.2940   40.5500 C.ar  219  PHE219     -0.0042
    141  CE1       24.0520   80.7010   38.9620 C.ar  219  PHE219     -0.0003
    142  CE2       23.0110   82.0850   40.6200 C.ar  219  PHE219     -0.0003
    143  CZ        24.1030   81.7880   39.8260 C.ar  219  PHE219     -0.0000
@<TRIPOS>BOND
     1   136   135    2
     2   135   134    1
     3    76    77    1
     4    78    77    1
     5    78    79    2
     6   134   133    1
     7   134   137    1
     8    77    80    1
     9   139   141   ar
    10   139   138   ar
    11   141   143   ar
    12   137   138    1
    13   138   140   ar
    14    80    81    1
    15   143   142   ar
    16   140   142   ar
    17    82    81    1
    18    81    83    1
    19    64    63    2
    20    67    65    1
    21    66    68    1
    22    66    65    1
    23    62    65    1
    24    62    63    1
    25    62    61    1
    26    63    69   am
    27    72    71    2
    28   103   101    1
    29    71    70    1
    30    69    70    1
    31    69    75    1
    32    96    97    1
    33    70    73    1
    34    84    85    1
    35   114   113    1
    36   114   115    1
    37    47    45   ar
    38    47    46   ar
    39   101   102    1
    40   101   100    1
    41    97   100    1
    42    97    98    1
    43    45    43   ar
    44   132   130    1
    45    75    74    1
    46     9     7   ar
    47    46    44   ar
    48    85    86    1
    49    85    88    1
    50    73    74    1
    51    86    87    2
    52   115   116    2
    53   115   117   am
    54     6     7    1
    55     6     5    1
    56    98    99    2
    57    98   104   am
    58     7     8   ar
    59   130   129    2
    60   130   131    1
    61    43    41   ar
    62    43    42   ar
    63     1     2    1
    64   129   128    1
    65    44    41   ar
    66   104   105    1
    67     2     5    1
    68     2     3    1
    69   117   118    1
    70    88    89    1
    71   122   123    1
    72    41    39   ar
    73    42    40   ar
    74   106   105    1
    75   106   107    2
    76   123   126    1
    77   123   124    1
    78   126   127    1
    79   127   128    1
    80   105   108    1
    81     4     3    2
    82     3    10   am
    83   118   119    1
    84   118   121    1
    85    89    91   ar
    86    89    90   ar
    87    91    93   ar
    88   108   109    1
    89    40    39   ar
    90    39    38    1
    91   124   125    2
    92   119   120    2
    93   112   110   ar
    94   109   110    1
    95    10    11    1
    96    90    92   ar
    97    58    59    2
    98    58    57    1
    99    60    57    1
   100    93    94   ar
   101   110   111   ar
   102    38    35    1
   103    37    36    2
   104    36    35    1
   105    57    56    1
   106    11    12    1
   107    92    94   ar
   108    94    95    1
   109    35    34    1
   110    13    12    2
   111    12    14   am
   112    51    50    2
   113    48    49    1
   114    14    15    1
   115    50    49    1
   116    32    31    1
   117    29    30    1
   118    29    28    1
   119    52    49    1
   120    52    53    1
   121    15    16    1
   122    15    18    1
   123    31    30    2
   124    31    33    1
   125    17    16    2
   126    16    23   am
   127    28    27    1
   128    53    55   ar
   129    53    54   ar
   130    19    18    1
   131    19    20    1
   132    23    24    1
   133    24    27    1
   134    24    25    1
   135    22    20   ar
   136    20    21   ar
   137    25    26    2
