@<TRIPOS>MOLECULE
tmp/2fmeB00.pdb
 143 137 0 0 0
SMALL
GASTEIGER

@<TRIPOS>ATOM
      1  N         19.7360   17.5040   63.0350 N.3    96  GLU96      -0.1231
      2  CA        20.4920   16.2640   62.9020 C.3    96  GLU96       0.1699
      3  C         21.6950   16.3740   61.9700 C.2    96  GLU96       0.2593
      4  O         22.8090   15.9760   62.3180 O.2    96  GLU96      -0.2718
      5  CB        19.5650   15.1360   62.4200 C.3    96  GLU96       0.0402
      6  CG        18.4020   14.8180   63.3840 C.3    96  GLU96       0.1161
      7  CD        17.6090   13.5730   62.9870 C.2    96  GLU96       0.3649
      8  OE1       17.8510   13.0130   61.8980 O.co2  96  GLU96      -0.2457
      9  OE2       16.7370   13.1480   63.7690 O.co2  96  GLU96      -0.2457
     10  N         21.4610   16.9230   60.7870 N.am   97  GLY97      -0.1942
     11  CA        22.5280   17.0780   59.8210 C.3    97  GLY97       0.2014
     12  C         22.5760   15.9050   58.8640 C.2    97  GLY97       0.2639
     13  O         21.7050   15.0310   58.8880 O.2    97  GLY97      -0.2714
     14  N         23.6080   15.8820   58.0300 N.am   98  GLU98      -0.1963
     15  CA        23.7870   14.8250   57.0450 C.3    98  GLU98       0.1733
     16  C         25.2640   14.4280   56.9660 C.2    98  GLU98       0.2616
     17  O         26.1220   15.0800   57.5510 O.2    98  GLU98      -0.2715
     18  CB        23.3180   15.3120   55.6670 C.3    98  GLU98       0.0429
     19  CG        21.8360   15.6650   55.5700 C.3    98  GLU98       0.1163
     20  CD        21.5030   16.4320   54.2980 C.2    98  GLU98       0.3649
     21  OE1       22.3230   16.4160   53.3560 O.co2  98  GLU98      -0.2457
     22  OE2       20.4210   17.0530   54.2210 O.co2  98  GLU98      -0.2457
     23  N         25.5480   13.3530   56.2370 N.am   99  ARG99      -0.1977
     24  CA        26.9140   12.8860   56.0670 C.3    99  ARG99       0.1597
     25  C         27.4520   13.4400   54.7530 C.2    99  ARG99       0.2287
     26  O         26.7470   13.4610   53.7390 O.2    99  ARG99      -0.2864
     27  CB        26.9660   11.3560   56.0130 C.3    99  ARG99       0.0334
     28  CG        26.4390   10.6520   57.2450 C.3    99  ARG99       0.0492
     29  CD        27.2720   10.9890   58.4530 C.3    99  ARG99       0.2205
     30  NE        28.6260   10.4610   58.3270 N.pl3  99  ARG99      -0.0865
     31  CZ        29.7090   11.1620   58.6100 C.cat  99  ARG99       0.5346
     32  NH1       29.5720   12.4020   59.0320 N.pl3  99  ARG99       0.1354
     33  NH2       30.9150   10.6420   58.4570 N.pl3  99  ARG99       0.1354
     34  N         32.1540   10.7860   61.3120 N.3   107  TRP107     -0.1241
     35  CA        31.0430   11.5740   61.8380 C.3   107  TRP107      0.1605
     36  C         31.4010   12.7670   62.7160 C.2   107  TRP107      0.2264
     37  O         30.8130   13.8360   62.5790 O.2   107  TRP107     -0.2867
     38  CB        30.0590   10.6710   62.5860 C.3   107  TRP107      0.0550
     39  CG        30.5470   10.2170   63.9090 C.ar  107  TRP107      0.0003
     40  CD1       31.3290    9.1290   64.1750 C.ar  107  TRP107      0.0946
     41  CD2       30.2950   10.8490   65.1640 C.ar  107  TRP107      0.0152
     42  NE1       31.5770    9.0490   65.5230 N.ar  107  TRP107     -0.2442
     43  CE2       30.9540   10.0930   66.1510 C.ar  107  TRP107      0.0810
     44  CE3       29.5790   11.9850   65.5470 C.ar  107  TRP107      0.0012
     45  CZ2       30.9090   10.4330   67.4980 C.ar  107  TRP107      0.0191
     46  CZ3       29.5380   12.3200   66.8820 C.ar  107  TRP107      0.0001
     47  CH2       30.1970   11.5500   67.8410 C.ar  107  TRP107      0.0015
     48  N         32.4690   15.6390   60.4430 N.3   110  ASP110     -0.1239
     49  CA        31.7080   15.9550   59.2470 C.3   110  ASP110      0.1674
     50  C         31.1290   17.3620   59.3820 C.2   110  ASP110      0.2266
     51  O         30.3550   17.6500   60.2970 O.2   110  ASP110     -0.2867
     52  CB        30.6050   14.9190   59.0420 C.3   110  ASP110      0.1410
     53  CG        29.9930   14.9840   57.6590 C.2   110  ASP110      0.3668
     54  OD1       29.7620   13.9050   57.0750 O.co2 110  ASP110     -0.2456
     55  OD2       29.7340   16.1020   57.1590 O.co2 110  ASP110     -0.2456
     56  N         27.4440   17.6650   59.8870 N.3   113  ALA113     -0.1245
     57  CA        26.8250   17.1430   61.0920 C.3   113  ALA113      0.1562
     58  C         26.0000   18.2810   61.6840 C.2   113  ALA113      0.2260
     59  O         26.4140   19.4510   61.6410 O.2   113  ALA113     -0.2867
     60  CB        27.8900   16.6790   62.0790 C.3   113  ALA113      0.0290
     61  N         22.4990   17.6920   67.1060 N.3   116  ILE116     -0.1231
     62  CA        22.5300   16.4950   67.9490 C.3   116  ILE116      0.1678
     63  C         23.8980   15.8170   68.0290 C.2   116  ILE116      0.2434
     64  O         24.4370   15.6220   69.1180 O.2   116  ILE116     -0.2733
     65  CB        21.4960   15.4490   67.4810 C.3   116  ILE116      0.0265
     66  CG1       20.0810   15.9760   67.7070 C.3   116  ILE116      0.0019
     67  CG2       21.7110   14.1390   68.2200 C.3   116  ILE116      0.0020
     68  CD1       18.9830   15.0760   67.1560 C.3   116  ILE116      0.0001
     69  N         24.4770   15.4410   66.8760 N.am  117  PRO117     -0.2729
     70  CA        25.7900   14.7860   66.9090 C.3   117  PRO117      0.1401
     71  C         26.8990   15.6460   67.5250 C.2   117  PRO117      0.2269
     72  O         27.7340   15.1510   68.2900 O.2   117  PRO117     -0.2865
     73  CB        26.0490   14.4490   65.4420 C.3   117  PRO117      0.0296
     74  CG        25.3060   15.5400   64.7030 C.3   117  PRO117      0.0237
     75  CD        24.0180   15.6460   65.4890 C.3   117  PRO117      0.0939
     76  N         15.1710    8.6530   71.7760 N.3   140  LEU140     -0.1245
     77  CA        14.6400    9.2720   70.5820 C.3   140  LEU140      0.1561
     78  C         13.2300    8.7770   70.3510 C.2   140  LEU140      0.2260
     79  O         13.0230    7.6540   69.8770 O.2   140  LEU140     -0.2867
     80  CB        15.5130    8.9470   69.3640 C.3   140  LEU140      0.0270
     81  CG        14.9870    9.4840   68.0170 C.3   140  LEU140      0.0019
     82  CD1       14.6550   10.9660   68.1450 C.3   140  LEU140      0.0001
     83  CD2       16.0270    9.2590   66.9200 C.3   140  LEU140      0.0001
     84  N         27.8420    7.3640   67.4820 N.3   191  TYR191     -0.1241
     85  CA        27.4210    7.1260   66.1090 C.3   191  TYR191      0.1605
     86  C         26.5430    5.9200   65.8390 C.2   191  TYR191      0.2264
     87  O         25.5440    6.0460   65.1450 O.2   191  TYR191     -0.2867
     88  CB        28.6140    7.0860   65.1550 C.3   191  TYR191      0.0534
     89  CG        28.1630    7.2820   63.7300 C.ar  191  TYR191     -0.0201
     90  CD1       28.3880    6.3150   62.7580 C.ar  191  TYR191     -0.0009
     91  CD2       27.4490    8.4220   63.3700 C.ar  191  TYR191     -0.0009
     92  CE1       27.9100    6.4790   61.4620 C.ar  191  TYR191      0.0417
     93  CE2       26.9710    8.5940   62.0880 C.ar  191  TYR191      0.0417
     94  CZ        27.2030    7.6240   61.1410 C.ar  191  TYR191      0.1957
     95  OH        26.7280    7.8130   59.8680 O.3   191  TYR191     -0.2866
     96  N         23.0830    6.4760   66.6270 N.3   194  LEU194     -0.1231
     97  CA        22.4130    7.2990   65.6310 C.3   194  LEU194      0.1693
     98  C         22.0390    6.4410   64.4230 C.2   194  LEU194      0.2591
     99  O         20.9460    6.5770   63.8730 O.2   194  LEU194     -0.2718
    100  CB        23.3110    8.4570   65.2070 C.3   194  LEU194      0.0284
    101  CG        23.6630    9.4390   66.3220 C.3   194  LEU194      0.0019
    102  CD1       24.4250   10.5920   65.7250 C.3   194  LEU194      0.0001
    103  CD2       22.4030    9.9470   67.0160 C.3   194  LEU194      0.0001
    104  N         22.9480    5.5550   64.0170 N.am  195  GLU195     -0.1979
    105  CA        22.6720    4.6740   62.8850 C.3   195  GLU195      0.1602
    106  C         21.4520    3.8030   63.1760 C.2   195  GLU195      0.2287
    107  O         20.6210    3.5690   62.3050 O.2   195  GLU195     -0.2864
    108  CB        23.8700    3.7790   62.6010 C.3   195  GLU195      0.0415
    109  CG        25.1440    4.5260   62.2590 C.3   195  GLU195      0.1163
    110  CD        26.2670    3.5790   61.9040 C.2   195  GLU195      0.3649
    111  OE1       26.4890    3.3570   60.6960 O.co2 195  GLU195     -0.2457
    112  OE2       26.9140    3.0490   62.8350 O.co2 195  GLU195     -0.2457
    113  N         19.0080    4.5400   65.1610 N.3   197  GLY197     -0.1210
    114  CA        17.8490    5.4010   65.0720 C.3   197  GLY197      0.1956
    115  C         17.4700    5.6050   63.6210 C.2   197  GLY197      0.2611
    116  O         16.2970    5.5250   63.2590 O.2   197  GLY197     -0.2717
    117  N         18.4780    5.8560   62.7890 N.am  198  ALA198     -0.1979
    118  CA        18.2820    6.0820   61.3620 C.3   198  ALA198      0.1597
    119  C         17.6020    4.8910   60.7120 C.2   198  ALA198      0.2287
    120  O         16.6940    5.0530   59.8970 O.2   198  ALA198     -0.2864
    121  CB        19.6160    6.3450   60.6840 C.3   198  ALA198      0.0319
    122  N         13.9060    4.4770   61.6460 N.3   201  ARG201     -0.1245
    123  CA        13.0940    5.5170   61.0490 C.3   201  ARG201      0.1563
    124  C         12.7320    5.0900   59.6300 C.2   201  ARG201      0.2260
    125  O         11.6060    5.2800   59.1850 O.2   201  ARG201     -0.2867
    126  CB        13.8550    6.8340   61.0140 C.3   201  ARG201      0.0307
    127  CG        13.0050    7.9890   60.5440 C.3   201  ARG201      0.0489
    128  CD        13.8110    9.2560   60.5620 C.3   201  ARG201      0.2205
    129  NE        14.1440    9.6370   61.9300 N.pl3 201  ARG201     -0.0865
    130  CZ        15.0330   10.5680   62.2490 C.cat 201  ARG201      0.5346
    131  NH1       15.6910   11.2090   61.2920 N.pl3 201  ARG201      0.1354
    132  NH2       15.2510   10.8650   63.5220 N.pl3 201  ARG201      0.1354
    133  N         14.6350   14.1570   70.3730 N.3   219  PHE219     -0.1241
    134  CA        15.8740   13.5140   70.7910 C.3   219  PHE219      0.1605
    135  C         16.2720   14.1660   72.1000 C.2   219  PHE219      0.2264
    136  O         16.5260   15.3660   72.1470 O.2   219  PHE219     -0.2867
    137  CB        16.9790   13.7250   69.7560 C.3   219  PHE219      0.0534
    138  CG        18.1940   12.8830   69.9990 C.ar  219  PHE219     -0.0203
    139  CD1       19.0780   13.1920   71.0210 C.ar  219  PHE219     -0.0042
    140  CD2       18.4440   11.7690   69.2170 C.ar  219  PHE219     -0.0042
    141  CE1       20.1830   12.4030   71.2580 C.ar  219  PHE219     -0.0003
    142  CE2       19.5550   10.9720   69.4510 C.ar  219  PHE219     -0.0003
    143  CZ        20.4240   11.2900   70.4720 C.ar  219  PHE219     -0.0000
@<TRIPOS>BOND
     1    21    20   ar
     2    26    25    2
     3    22    20   ar
     4    20    19    1
     5    25    24    1
     6    19    18    1
     7    18    15    1
     8    27    24    1
     9    27    28    1
    10    24    23    1
    11    23    16   am
    12    16    15    1
    13    16    17    2
    14    15    14    1
    15    54    53   ar
    16    55    53   ar
    17    28    29    1
    18    53    52    1
    19    14    12   am
    20    30    29    1
    21    30    31    2
    22    33    31    1
    23    31    32    1
    24    12    13    2
    25    12    11    1
    26    52    49    1
    27   125   124    2
    28    49    50    1
    29    49    48    1
    30    50    51    2
    31   124   123    1
    32    11    10    1
    33    95    94    1
    34    56    57    1
    35   120   119    2
    36   127   128    1
    37   127   126    1
    38   128   129    1
    39   121   118    1
    40   111   110   ar
    41   119   118    1
    42    10     3   am
    43   126   123    1
    44   123   122    1
    45    57    58    1
    46    57    60    1
    47    94    92   ar
    48    94    93   ar
    49   131   130    1
    50    34    35    1
    51   118   117    1
    52    92    90   ar
    53    59    58    2
    54    35    38    1
    55    35    36    1
    56     8     7   ar
    57   110   109    1
    58   110   112   ar
    59   129   130    2
    60     3     4    2
    61     3     2    1
    62    93    91   ar
    63   130   132    1
    64   109   108    1
    65   107   106    2
    66     5     2    1
    67     5     6    1
    68    37    36    2
    69    38    39    1
    70   108   105    1
    71    90    89   ar
    72   117   115   am
    73   105   106    1
    74   105   104    1
    75     2     1    1
    76     7     6    1
    77     7     9   ar
    78   116   115    2
    79    91    89   ar
    80   115   114    1
    81    89    88    1
    82    99    98    2
    83    39    40   ar
    84    39    41   ar
    85   104    98   am
    86    40    42   ar
    87    98    97    1
    88    74    73    1
    89    74    75    1
    90   114   113    1
    91    87    86    2
    92    88    85    1
    93    41    44   ar
    94    41    43   ar
    95   100    97    1
    96   100   101    1
    97    73    70    1
    98    75    69    1
    99    42    43   ar
   100    44    46   ar
   101    97    96    1
   102   102   101    1
   103    86    85    1
   104    85    84    1
   105    43    45   ar
   106   101   103    1
   107    69    70    1
   108    69    63   am
   109    46    47   ar
   110    70    71    1
   111    83    81    1
   112    61    62    1
   113    68    66    1
   114    65    66    1
   115    65    62    1
   116    65    67    1
   117    45    47   ar
   118    71    72    2
   119    62    63    1
   120    81    82    1
   121    81    80    1
   122    63    64    2
   123   140   142   ar
   124   140   138   ar
   125    80    77    1
   126   142   143   ar
   127   137   138    1
   128   137   134    1
   129    79    78    2
   130   138   139   ar
   131    78    77    1
   132   133   134    1
   133   143   141   ar
   134    77    76    1
   135   134   135    1
   136   139   141   ar
   137   135   136    2
