@<TRIPOS>MOLECULE
tmp/2fmfA00.pdb
 110 103 0 0 0
SMALL
GASTEIGER

@<TRIPOS>ATOM
      1  N         36.1810  -91.5230  -73.3700 N.3    89  ALA89      -0.1231
      2  CA        36.6770  -90.3050  -73.9860 C.3    89  ALA89       0.1694
      3  C         36.0840  -90.1900  -75.3810 C.2    89  ALA89       0.2592
      4  O         36.4140  -90.9800  -76.2580 O.2    89  ALA89      -0.2718
      5  CB        38.1750  -90.3430  -74.0640 C.3    89  ALA89       0.0304
      6  N         35.1780  -89.2360  -75.5660 N.am   90  LYS90      -0.1966
      7  CA        34.5510  -88.9920  -76.8580 C.3    90  LYS90       0.1728
      8  C         34.7580  -87.5280  -77.2040 C.2    90  LYS90       0.2616
      9  O         34.6810  -86.6650  -76.3300 O.2    90  LYS90      -0.2715
     10  CB        33.0480  -89.2720  -76.8060 C.3    90  LYS90       0.0311
     11  CG        32.6820  -90.7360  -76.6230 C.3    90  LYS90       0.0038
     12  CD        31.1820  -90.9130  -76.4970 C.3    90  LYS90       0.0206
     13  CE        30.7930  -92.3780  -76.4050 C.3    90  LYS90       0.1093
     14  NZ        29.3190  -92.5620  -76.2320 N.3    90  LYS90      -0.1314
     15  N         35.0030  -87.2450  -78.4770 N.am   91  LYS91      -0.1977
     16  CA        35.2110  -85.8730  -78.9170 C.3    91  LYS91       0.1596
     17  C         34.0870  -84.9600  -78.4320 C.2    91  LYS91       0.2287
     18  O         34.3390  -83.8790  -77.9000 O.2    91  LYS91      -0.2864
     19  CB        35.3220  -85.8130  -80.4430 C.3    91  LYS91       0.0298
     20  CG        35.3640  -84.3940  -81.0000 C.3    91  LYS91       0.0038
     21  CD        35.4710  -84.3710  -82.5180 C.3    91  LYS91       0.0206
     22  CE        35.4650  -82.9420  -83.0620 C.3    91  LYS91       0.1093
     23  NZ        34.1340  -82.2800  -82.9320 N.3    91  LYS91      -0.1314
     24  N         34.2500  -84.3650  -74.6260 N.3    94  ILE94      -0.1231
     25  CA        35.4540  -83.6100  -74.2900 C.3    94  ILE94       0.1692
     26  C         35.2320  -82.1450  -74.6340 C.2    94  ILE94       0.2591
     27  O         35.5220  -81.2590  -73.8290 O.2    94  ILE94      -0.2718
     28  CB        36.6820  -84.1530  -75.0430 C.3    94  ILE94       0.0266
     29  CG1       37.0490  -85.5370  -74.5100 C.3    94  ILE94       0.0019
     30  CG2       37.8680  -83.1970  -74.8930 C.3    94  ILE94       0.0020
     31  CD1       38.1260  -86.2430  -75.3100 C.3    94  ILE94       0.0001
     32  N         34.7090  -81.8960  -75.8330 N.am   95  ILE95      -0.1980
     33  CA        34.4350  -80.5290  -76.2740 C.3    95  ILE95       0.1595
     34  C         33.3370  -79.9000  -75.4040 C.2    95  ILE95       0.2287
     35  O         33.3780  -78.7050  -75.1070 O.2    95  ILE95      -0.2864
     36  CB        34.0830  -80.4850  -77.7900 C.3    95  ILE95       0.0276
     37  CG1       35.3160  -80.8620  -78.6210 C.3    95  ILE95       0.0022
     38  CG2       33.5960  -79.0860  -78.1910 C.3    95  ILE95       0.0022
     39  CD1       35.0570  -81.0470  -80.1170 C.3    95  ILE95       0.0001
     40  N         32.8570  -80.5470  -72.2590 N.3    97  ALA97      -0.1231
     41  CA        33.5030  -80.2360  -70.9950 C.3    97  ALA97       0.1694
     42  C         34.3540  -78.9710  -71.1440 C.2    97  ALA97       0.2591
     43  O         34.3770  -78.1140  -70.2610 O.2    97  ALA97      -0.2718
     44  CB        34.3520  -81.4040  -70.5440 C.3    97  ALA97       0.0304
     45  N         35.0380  -78.8500  -72.2770 N.am   98  ALA98      -0.1980
     46  CA        35.8610  -77.6740  -72.5420 C.3    98  ALA98       0.1597
     47  C         35.0130  -76.3990  -72.5780 C.2    98  ALA98       0.2287
     48  O         35.3510  -75.3980  -71.9400 O.2    98  ALA98      -0.2864
     49  CB        36.6180  -77.8430  -73.8420 C.3    98  ALA98       0.0319
     50  N         35.3900  -77.1260  -67.6440 N.3   102  ALA102     -0.1231
     51  CA        35.9680  -78.1780  -66.8110 C.3   102  ALA102      0.1694
     52  C         37.4420  -77.8590  -66.5810 C.2   102  ALA102      0.2593
     53  O         38.1430  -77.5000  -67.5200 O.2   102  ALA102     -0.2718
     54  CB        35.8340  -79.5130  -67.4830 C.3   102  ALA102      0.0304
     55  N         37.9170  -77.9850  -65.3450 N.am  103  SER103     -0.1938
     56  CA        39.3350  -77.7490  -65.0560 C.3   103  SER103      0.2055
     57  C         40.1840  -78.9300  -65.5640 C.2   103  SER103      0.2644
     58  O         41.3110  -78.7580  -66.0490 O.2   103  SER103     -0.2714
     59  CB        39.5470  -77.5390  -63.5620 C.3   103  SER103      0.2130
     60  OG        38.6080  -76.6180  -63.0270 O.3   103  SER103     -0.2179
     61  N         39.6180  -80.1290  -65.4520 N.am  104  GLY104     -0.1939
     62  CA        40.2740  -81.3490  -65.8860 C.3   104  GLY104      0.2014
     63  C         39.2320  -82.3250  -66.3980 C.2   104  GLY104      0.2638
     64  O         38.0320  -82.1250  -66.1880 O.2   104  GLY104     -0.2714
     65  N         39.7000  -83.3810  -67.0560 N.am  105  TYR105     -0.1973
     66  CA        38.8470  -84.3860  -67.6660 C.3   105  TYR105      0.1639
     67  C         39.5570  -85.7260  -67.5170 C.2   105  TYR105      0.2290
     68  O         40.7260  -85.8450  -67.8770 O.2   105  TYR105     -0.2864
     69  CB        38.6640  -84.0630  -69.1470 C.3   105  TYR105      0.0560
     70  CG        37.7940  -85.0350  -69.9050 C.ar  105  TYR105     -0.0198
     71  CD1       38.3090  -86.2200  -70.3970 C.ar  105  TYR105     -0.0009
     72  CD2       36.4550  -84.7590  -70.1350 C.ar  105  TYR105     -0.0009
     73  CE1       37.5080  -87.1100  -71.0940 C.ar  105  TYR105      0.0417
     74  CE2       35.6550  -85.6340  -70.8290 C.ar  105  TYR105      0.0417
     75  CZ        36.1770  -86.8090  -71.3050 C.ar  105  TYR105      0.1957
     76  OH        35.3560  -87.6710  -72.0010 O.3   105  TYR105     -0.2866
     77  N         38.9950  -90.2650  -67.6080 N.3   107  VAL107     -0.1245
     78  CA        38.1680  -91.4310  -67.8850 C.3   107  VAL107      0.1561
     79  C         38.3060  -92.4420  -66.7510 C.2   107  VAL107      0.2260
     80  O         39.4150  -92.7560  -66.3270 O.2   107  VAL107     -0.2867
     81  CB        38.5840  -92.1040  -69.2090 C.3   107  VAL107      0.0252
     82  CG1       37.7620  -93.3650  -69.4510 C.3   107  VAL107      0.0019
     83  CG2       38.4190  -91.1360  -70.3780 C.3   107  VAL107      0.0019
     84  N         46.3420  -85.5800  -62.9840 N.3   118  LYS118     -0.1245
     85  CA        45.2610  -84.6700  -63.3460 C.3   118  LYS118      0.1561
     86  C         45.1470  -83.5190  -62.3440 C.2   118  LYS118      0.2260
     87  O         45.0280  -82.3580  -62.7360 O.2   118  LYS118     -0.2867
     88  CB        43.9370  -85.4260  -63.4500 C.3   118  LYS118      0.0271
     89  CG        43.9520  -86.5620  -64.4530 C.3   118  LYS118      0.0035
     90  CD        44.2610  -86.0730  -65.8420 C.3   118  LYS118      0.0206
     91  CE        44.1130  -87.1670  -66.8750 C.3   118  LYS118      0.1093
     92  NZ        44.6660  -86.7410  -68.1910 N.3   118  LYS118     -0.1314
     93  N         48.0290  -81.0520  -62.8490 N.3   121  LYS121     -0.1245
     94  CA        47.8810  -80.2110  -64.0320 C.3   121  LYS121      0.1561
     95  C         46.9460  -79.0440  -63.7140 C.2   121  LYS121      0.2260
     96  O         47.1690  -77.9150  -64.1470 O.2   121  LYS121     -0.2867
     97  CB        47.3390  -81.0080  -65.2220 C.3   121  LYS121      0.0271
     98  CG        47.9550  -82.3900  -65.3610 C.3   121  LYS121      0.0035
     99  CD        47.5400  -83.1080  -66.6400 C.3   121  LYS121      0.0206
    100  CE        47.8070  -82.2660  -67.8580 C.3   121  LYS121      0.1093
    101  NZ        46.7150  -81.2710  -68.0770 N.3   121  LYS121     -0.1314
    102  N         47.9490  -74.9770  -63.4990 N.3   125  LYS125     -0.1245
    103  CA        47.2420  -73.9950  -64.3050 C.3   125  LYS125      0.1561
    104  C         46.6830  -72.8620  -63.4300 C.2   125  LYS125      0.2260
    105  O         46.7200  -71.6920  -63.8120 O.2   125  LYS125     -0.2867
    106  CB        46.1040  -74.6750  -65.0620 C.3   125  LYS125      0.0271
    107  CG        45.9920  -74.2380  -66.5090 C.3   125  LYS125      0.0035
    108  CD        44.5620  -74.0110  -66.9200 C.3   125  LYS125      0.0206
    109  CE        44.4870  -73.3440  -68.2800 C.3   125  LYS125      0.1093
    110  NZ        43.3960  -73.8950  -69.1200 N.3   125  LYS125     -0.1314
@<TRIPOS>BOND
     1    22    23    1
     2    22    21    1
     3    21    20    1
     4    20    19    1
     5    19    16    1
     6    39    37    1
     7    16    15    1
     8    16    17    1
     9    37    36    1
    10    15     8   am
    11    17    18    2
    12    38    36    1
    13    36    33    1
    14     8     7    1
    15     8     9    2
    16     7    10    1
    17     7     6    1
    18    10    11    1
    19    11    12    1
    20    12    13    1
    21    13    14    1
    22    33    32    1
    23    33    34    1
    24     4     3    2
    25    32    26   am
    26     6     3   am
    27    34    35    2
    28     3     2    1
    29    31    29    1
    30    28    30    1
    31    28    29    1
    32    28    25    1
    33    26    25    1
    34    26    27    2
    35    24    25    1
    36     5     2    1
    37     2     1    1
    38    49    46    1
    39    47    46    1
    40    47    48    2
    41    46    45    1
    42    45    42   am
    43    40    41    1
    44    76    75    1
    45    75    73   ar
    46    75    74   ar
    47    42    41    1
    48    42    43    2
    49    73    71   ar
    50    41    44    1
    51    74    72   ar
    52    71    70   ar
    53    83    81    1
    54    72    70   ar
    55    70    69    1
    56    82    81    1
    57    81    78    1
    58    69    66    1
    59   110   109    1
    60   109   108    1
    61    92    91    1
    62   101   100    1
    63    78    77    1
    64    78    79    1
    65    68    67    2
    66   100    99    1
    67    66    67    1
    68    66    65    1
    69    50    51    1
    70    53    52    2
    71    54    51    1
    72    65    63   am
    73   108   107    1
    74    91    90    1
    75    51    52    1
    76    79    80    2
    77    99    98    1
    78    52    55   am
    79   107   106    1
    80    63    64    2
    81    63    62    1
    82    58    57    2
    83    62    61    1
    84    90    89    1
    85    57    61   am
    86    57    56    1
    87    98    97    1
    88    55    56    1
    89    97    94    1
    90   106   103    1
    91    56    59    1
    92    89    88    1
    93   103   102    1
    94   103   104    1
    95    96    95    2
    96    94    95    1
    97    94    93    1
    98   105   104    2
    99    59    60    1
   100    88    85    1
   101    85    84    1
   102    85    86    1
   103    87    86    2
