@<TRIPOS>MOLECULE
tmp/2fmnB01.pdb
 173 164 0 0 0
SMALL
GASTEIGER

@<TRIPOS>ATOM
      1  N        -21.7810   19.2770   61.4390 N.3    26  GLU26      -0.1245
      2  CA       -20.6270   19.8330   62.1180 C.3    26  GLU26       0.1567
      3  C        -20.2300   21.1630   61.4940 C.2    26  GLU26       0.2260
      4  O        -20.1930   21.2970   60.2680 O.2    26  GLU26      -0.2867
      5  CB       -19.4540   18.8600   62.0400 C.3    26  GLU26       0.0388
      6  CG       -18.2520   19.2780   62.8440 C.3    26  GLU26       0.1160
      7  CD       -17.1820   18.2060   62.8390 C.2    26  GLU26       0.3649
      8  OE1      -17.4700   17.0860   63.3170 O.co2  26  GLU26      -0.2457
      9  OE2      -16.0680   18.4840   62.3500 O.co2  26  GLU26      -0.2457
     10  N        -17.5680   24.8790   62.1740 N.3    28  PHE28      -0.1241
     11  CA       -16.3290   25.3330   62.7870 C.3    28  PHE28       0.1605
     12  C        -16.4190   26.8400   63.0100 C.2    28  PHE28       0.2264
     13  O        -17.1370   27.5400   62.2910 O.2    28  PHE28      -0.2867
     14  CB       -15.1330   24.9770   61.8910 C.3    28  PHE28       0.0534
     15  CG       -15.0820   25.7420   60.5960 C.ar   28  PHE28      -0.0203
     16  CD1      -14.6210   27.0550   60.5630 C.ar   28  PHE28      -0.0042
     17  CD2      -15.4810   25.1440   59.4060 C.ar   28  PHE28      -0.0042
     18  CE1      -14.5580   27.7610   59.3620 C.ar   28  PHE28      -0.0003
     19  CE2      -15.4240   25.8350   58.2010 C.ar   28  PHE28      -0.0003
     20  CZ       -14.9610   27.1480   58.1750 C.ar   28  PHE28      -0.0000
     21  N        -13.8920   32.6790   60.9880 N.3    31  ARG31      -0.1245
     22  CA       -12.7370   33.5310   61.2640 C.3    31  ARG31       0.1563
     23  C        -12.8440   34.9450   60.6970 C.2    31  ARG31       0.2260
     24  O        -11.9360   35.7540   60.8750 O.2    31  ARG31      -0.2867
     25  CB       -11.4590   32.8800   60.7300 C.3    31  ARG31       0.0307
     26  CG       -11.1460   31.5220   61.3320 C.3    31  ARG31       0.0489
     27  CD        -9.8070   31.0120   60.8190 C.3    31  ARG31       0.2205
     28  NE        -9.7920   30.9010   59.3620 N.pl3  31  ARG31      -0.0865
     29  CZ       -10.3090   29.8850   58.6750 C.cat  31  ARG31       0.5346
     30  NH1      -10.8910   28.8710   59.3080 N.pl3  31  ARG31       0.1354
     31  NH2      -10.2450   29.8830   57.3490 N.pl3  31  ARG31       0.1354
     32  N        -17.3470   34.8850   56.7930 N.3    35  MET35      -0.1245
     33  CA       -17.5210   33.4880   57.1830 C.3    35  MET35       0.1570
     34  C        -18.6410   33.3460   58.2020 C.2    35  MET35       0.2261
     35  O        -19.3880   32.3680   58.1890 O.2    35  MET35      -0.2867
     36  CB       -16.2350   32.9290   57.7940 C.3    35  MET35       0.0387
     37  CG       -15.2060   32.4380   56.7910 C.3    35  MET35       0.0595
     38  SD       -13.7830   31.6500   57.6110 S.3    35  MET35      -0.1393
     39  CE       -12.4220   32.3110   56.5930 C.3    35  MET35       0.0692
     40  N        -16.5050   22.4850   66.1150 N.3    57  THR57      -0.1218
     41  CA       -15.1250   22.1010   66.3880 C.3    57  THR57       0.1862
     42  C        -14.4350   23.0300   67.3900 C.2    57  THR57       0.2287
     43  O        -14.8220   24.1910   67.5550 O.2    57  THR57      -0.2866
     44  CB       -14.3060   22.0530   65.0930 C.3    57  THR57       0.1770
     45  OG1      -14.3450   23.3340   64.4620 O.3    57  THR57      -0.2211
     46  CG2      -14.8870   21.0150   64.1380 C.3    57  THR57       0.0375
     47  N        -16.9820   20.6090   70.6260 N.3    86  HIS86      -0.1241
     48  CA       -15.9110   19.6200   70.6040 C.3    86  HIS86       0.1621
     49  C        -14.9650   20.0780   71.7040 C.2    86  HIS86       0.2264
     50  O        -14.7190   21.2640   71.8490 O.2    86  HIS86      -0.2867
     51  CB       -15.1650   19.6100   69.2650 C.3    86  HIS86       0.0745
     52  CG       -15.9700   19.0720   68.1220 C.ar   86  HIS86       0.0817
     53  ND1      -15.3900   18.5550   66.9840 N.ar   86  HIS86      -0.2268
     54  CD2      -17.3080   18.9860   67.9340 C.ar   86  HIS86       0.1154
     55  CE1      -16.3340   18.1700   66.1460 C.ar   86  HIS86       0.1986
     56  NE2      -17.5080   18.4200   66.6980 N.ar   86  HIS86      -0.2212
     57  N         -5.8110   17.6390   67.6280 N.3   118  ASP118     -0.1239
     58  CA        -4.6800   17.6630   66.7090 C.3   118  ASP118      0.1674
     59  C         -3.4940   18.2160   67.5050 C.2   118  ASP118      0.2266
     60  O         -3.6560   19.1360   68.3120 O.2   118  ASP118     -0.2867
     61  CB        -4.9620   18.5760   65.5040 C.3   118  ASP118      0.1410
     62  CG        -5.9590   17.9700   64.5150 C.2   118  ASP118      0.3668
     63  OD1       -6.0360   16.7240   64.4240 O.co2 118  ASP118     -0.2456
     64  OD2       -6.6490   18.7440   63.8100 O.co2 118  ASP118     -0.2456
     65  N        -11.5950    5.7370   63.4330 N.3   145  TYR145     -0.1241
     66  CA       -10.8550    5.8310   62.1770 C.3   145  TYR145      0.1605
     67  C        -10.8700    4.5440   61.3580 C.2   145  TYR145      0.2264
     68  O        -10.0570    3.6370   61.5630 O.2   145  TYR145     -0.2867
     69  CB        -9.4100    6.2720   62.4570 C.3   145  TYR145      0.0534
     70  CG        -9.3440    7.5370   63.2940 C.ar  145  TYR145     -0.0201
     71  CD1       -9.4260    7.4720   64.6840 C.ar  145  TYR145     -0.0009
     72  CD2       -9.2800    8.8020   62.6930 C.ar  145  TYR145     -0.0009
     73  CE1       -9.4540    8.6250   65.4630 C.ar  145  TYR145      0.0417
     74  CE2       -9.3080    9.9790   63.4710 C.ar  145  TYR145      0.0417
     75  CZ        -9.3970    9.8730   64.8550 C.ar  145  TYR145      0.1957
     76  OH        -9.4430   11.0040   65.6490 O.3   145  TYR145     -0.2866
     77  N        -13.9070    9.4280   60.8880 N.3   176  GLN176     -0.1231
     78  CA       -13.1350   10.3950   60.1370 C.3   176  GLN176      0.1698
     79  C        -13.7950   10.2530   58.7640 C.2   176  GLN176      0.2592
     80  O        -14.3810    9.2080   58.4790 O.2   176  GLN176     -0.2718
     81  CB       -11.6780    9.9060   60.0880 C.3   176  GLN176      0.0381
     82  CG       -10.7570   10.7070   59.2070 C.3   176  GLN176      0.0905
     83  CD       -10.6830   12.1490   59.6420 C.2   176  GLN176      0.2608
     84  OE1      -11.5890   12.9420   59.3640 O.2   176  GLN176     -0.2717
     85  NE2       -9.6120   12.4970   60.3500 N.am  176  GLN176     -0.0878
     86  N        -13.7250   11.2660   57.9120 N.am  177  PHE177     -0.1976
     87  CA       -14.3570   11.1320   56.6020 C.3   177  PHE177      0.1639
     88  C        -13.6170   10.0650   55.7920 C.2   177  PHE177      0.2290
     89  O        -12.4850    9.7020   56.1300 O.2   177  PHE177     -0.2864
     90  CB       -14.3730   12.4760   55.8630 C.3   177  PHE177      0.0560
     91  CG       -13.0100   13.0170   55.5410 C.ar  177  PHE177     -0.0200
     92  CD1      -12.3350   12.6060   54.3900 C.ar  177  PHE177     -0.0042
     93  CD2      -12.4060   13.9510   56.3800 C.ar  177  PHE177     -0.0042
     94  CE1      -11.0700   13.1210   54.0750 C.ar  177  PHE177     -0.0003
     95  CE2      -11.1430   14.4750   56.0790 C.ar  177  PHE177     -0.0003
     96  CZ       -10.4730   14.0620   54.9260 C.ar  177  PHE177     -0.0000
     97  N        -17.9920   13.8540   54.1120 N.3   205  LEU205     -0.1245
     98  CA       -17.4270   15.1130   53.6520 C.3   205  LEU205      0.1561
     99  C        -17.7860   15.3290   52.1870 C.2   205  LEU205      0.2260
    100  O        -17.2380   14.6570   51.3080 O.2   205  LEU205     -0.2867
    101  CB       -15.9000   15.1280   53.7800 C.3   205  LEU205      0.0270
    102  CG       -15.2120   16.3770   53.1890 C.3   205  LEU205      0.0019
    103  CD1      -15.4760   17.5860   54.0850 C.3   205  LEU205      0.0001
    104  CD2      -13.7150   16.1480   53.0680 C.3   205  LEU205      0.0001
    105  N         -8.0880   21.1070   48.4660 N.3   212  GLN212     -0.1231
    106  CA        -8.0340   21.1680   49.9100 C.3   212  GLN212      0.1698
    107  C         -8.4170   19.8410   50.5620 C.2   212  GLN212      0.2592
    108  O         -7.8200   19.4460   51.5610 O.2   212  GLN212     -0.2718
    109  CB        -8.9290   22.3000   50.4200 C.3   212  GLN212      0.0381
    110  CG        -8.5070   23.6990   49.9290 C.3   212  GLN212      0.0905
    111  CD        -7.0150   23.9810   50.1230 C.2   212  GLN212      0.2608
    112  OE1       -6.1770   23.5590   49.3190 O.2   212  GLN212     -0.2717
    113  NE2       -6.6780   24.6890   51.2020 N.am  212  GLN212     -0.0878
    114  N         -9.4010   19.1410   50.0030 N.am  213  ALA213     -0.1980
    115  CA        -9.8030   17.8550   50.5770 C.3   213  ALA213      0.1597
    116  C         -8.6510   16.8450   50.4620 C.2   213  ALA213      0.2287
    117  O         -8.3920   16.0750   51.3870 O.2   213  ALA213     -0.2864
    118  CB       -11.0560   17.3170   49.8580 C.3   213  ALA213      0.0319
    119  N         -5.4560   17.4840   50.3970 N.3   215  LYS215     -0.1231
    120  CA        -4.4010   17.8320   51.3440 C.3   215  LYS215      0.1693
    121  C         -4.7630   17.3460   52.7320 C.2   215  LYS215      0.2592
    122  O         -3.9250   16.7980   53.4410 O.2   215  LYS215     -0.2718
    123  CB        -4.1740   19.3440   51.3690 C.3   215  LYS215      0.0285
    124  CG        -3.5100   19.8910   50.1110 C.3   215  LYS215      0.0035
    125  CD        -2.0630   19.4180   49.9890 C.3   215  LYS215      0.0206
    126  CE        -1.4190   19.9240   48.6910 C.3   215  LYS215      0.1093
    127  NZ         0.0210   19.5300   48.5520 N.3   215  LYS215     -0.1314
    128  N         -6.0150   17.5490   53.1220 N.am  216  PHE216     -0.1976
    129  CA        -6.4630   17.1060   54.4350 C.3   216  PHE216      0.1639
    130  C         -6.4250   15.5790   54.4620 C.2   216  PHE216      0.2290
    131  O         -6.0180   14.9730   55.4510 O.2   216  PHE216     -0.2864
    132  CB        -7.8850   17.6020   54.7070 C.3   216  PHE216      0.0560
    133  CG        -8.2380   17.6630   56.1670 C.ar  216  PHE216     -0.0200
    134  CD1       -8.2600   16.5110   56.9440 C.ar  216  PHE216     -0.0042
    135  CD2       -8.5340   18.8820   56.7710 C.ar  216  PHE216     -0.0042
    136  CE1       -8.5730   16.5710   58.3080 C.ar  216  PHE216     -0.0003
    137  CE2       -8.8480   18.9510   58.1330 C.ar  216  PHE216     -0.0003
    138  CZ        -8.8670   17.7910   58.9000 C.ar  216  PHE216     -0.0000
    139  N         -2.9510   14.2000   54.9430 N.3   219  MET219     -0.1230
    140  CA        -2.4510   14.3790   56.3080 C.3   219  MET219      0.1702
    141  C         -3.1240   13.4390   57.3070 C.2   219  MET219      0.2593
    142  O         -2.5670   13.1550   58.3680 O.2   219  MET219     -0.2718
    143  CB        -2.6910   15.8050   56.8050 C.3   219  MET219      0.0401
    144  CG        -2.1950   16.9150   55.9080 C.3   219  MET219      0.0596
    145  SD        -2.3830   18.5270   56.7300 S.3   219  MET219     -0.1393
    146  CE        -4.0570   18.3670   57.4580 C.3   219  MET219      0.0692
    147  N         -4.3260   12.9710   56.9820 N.am  220  THR220     -0.1953
    148  CA        -5.0680   12.1070   57.8930 C.3   220  THR220      0.1897
    149  C         -5.1000   10.6260   57.5390 C.2   220  THR220      0.2313
    150  O         -5.8090    9.8460   58.1830 O.2   220  THR220     -0.2863
    151  CB        -6.5170   12.6080   58.0550 C.3   220  THR220      0.1794
    152  OG1       -7.1070   12.8030   56.7620 O.3   220  THR220     -0.2208
    153  CG2       -6.5360   13.9180   58.8300 C.3   220  THR220      0.0378
    154  N        -19.7260   16.8980   57.4730 N.3   268  TYR268     -0.1241
    155  CA       -18.6880   17.9030   57.6630 C.3   268  TYR268      0.1605
    156  C        -19.1020   18.9630   56.6600 C.2   268  TYR268      0.2264
    157  O        -18.7180   18.9140   55.4850 O.2   268  TYR268     -0.2867
    158  CB       -17.3110   17.3230   57.3230 C.3   268  TYR268      0.0534
    159  CG       -16.8980   16.2160   58.2700 C.ar  268  TYR268     -0.0201
    160  CD1      -16.7090   14.9080   57.8150 C.ar  268  TYR268     -0.0009
    161  CD2      -16.7200   16.4740   59.6290 C.ar  268  TYR268     -0.0009
    162  CE1      -16.3500   13.8780   58.6960 C.ar  268  TYR268      0.0417
    163  CE2      -16.3610   15.4600   60.5170 C.ar  268  TYR268      0.0417
    164  CZ       -16.1730   14.1620   60.0440 C.ar  268  TYR268      0.1957
    165  OH       -15.7780   13.1710   60.9220 O.3   268  TYR268     -0.2866
    166  N        -18.3750   22.2030   56.5610 N.3   270  LEU270     -0.1245
    167  CA       -17.4020   23.2580   56.2660 C.3   270  LEU270      0.1561
    168  C        -18.1650   24.5910   56.2570 C.2   270  LEU270      0.2260
    169  O        -17.8240   25.5280   55.5260 O.2   270  LEU270     -0.2867
    170  CB       -16.6920   23.0410   54.9200 C.3   270  LEU270      0.0270
    171  CG       -15.8330   21.7770   54.7330 C.3   270  LEU270      0.0019
    172  CD1      -14.6860   22.0940   53.7800 C.3   270  LEU270      0.0001
    173  CD2      -15.2710   21.2940   56.0640 C.3   270  LEU270      0.0001
@<TRIPOS>BOND
     1   105   106    1
     2   127   126    1
     3   126   125    1
     4   112   111    2
     5   118   115    1
     6   106   109    1
     7   106   107    1
     8   110   111    1
     9   110   109    1
    10   125   124    1
    11   114   107   am
    12   114   115    1
    13   124   123    1
    14   111   113   am
    15   119   120    1
    16   116   115    1
    17   116   117    2
    18   107   108    2
    19   100    99    2
    20   120   123    1
    21   120   121    1
    22    99    98    1
    23   121   128   am
    24   121   122    2
    25   104   102    1
    26   128   129    1
    27   102   101    1
    28   102   103    1
    29    98   101    1
    30    98    97    1
    31   172   171    1
    32    94    92   ar
    33    94    96   ar
    34    92    91   ar
    35   129   130    1
    36   129   132    1
    37   130   131    2
    38   132   133    1
    39   171   170    1
    40   171   173    1
    41   170   167    1
    42    96    95   ar
    43   139   140    1
    44   157   156    2
    45   169   168    2
    46    91    90    1
    47    91    93   ar
    48    88    89    2
    49    88    87    1
    50    90    87    1
    51   144   145    1
    52   144   143    1
    53    95    93   ar
    54   133   135   ar
    55   133   134   ar
    56   168   167    1
    57   167   166    1
    58   140   143    1
    59   140   141    1
    60    39    38    1
    61    87    86    1
    62   156   155    1
    63   145   146    1
    64   152   151    1
    65   135   137   ar
    66    37    38    1
    67    37    36    1
    68    32    33    1
    69   134   136   ar
    70   147   141   am
    71   147   148    1
    72    33    36    1
    73    33    34    1
    74   141   142    2
    75   158   155    1
    76   158   159    1
    77    31    29    1
    78   154   155    1
    79   149   148    1
    80   149   150    2
    81   160   159   ar
    82   160   162   ar
    83   148   151    1
    84    86    79   am
    85   151   153    1
    86   137   138   ar
    87    20    19   ar
    88    20    18   ar
    89    35    34    2
    90    19    17   ar
    91   159   161   ar
    92   136   138   ar
    93    80    79    2
    94    29    30    1
    95    29    28    2
    96   162   164   ar
    97    79    78    1
    98    82    83    1
    99    82    81    1
   100    18    16   ar
   101    28    27    1
   102    84    83    2
   103    17    15   ar
   104   161   163   ar
   105    83    85   am
   106   164   163   ar
   107   164   165    1
   108    81    78    1
   109    78    77    1
   110     4     3    2
   111    16    15   ar
   112    15    14    1
   113    23    24    2
   114    23    22    1
   115    25    22    1
   116    25    26    1
   117    27    26    1
   118    21    22    1
   119    67    68    2
   120    67    66    1
   121     1     2    1
   122     3     2    1
   123    14    11    1
   124     5     2    1
   125     5     6    1
   126    10    11    1
   127    66    69    1
   128    66    65    1
   129    13    12    2
   130     9     7   ar
   131    69    70    1
   132    72    70   ar
   133    72    74   ar
   134    11    12    1
   135     7     6    1
   136     7     8   ar
   137    70    71   ar
   138    74    75   ar
   139    64    62   ar
   140    46    44    1
   141    63    62   ar
   142    45    44    1
   143    62    61    1
   144    71    73   ar
   145    75    73   ar
   146    75    76    1
   147    44    41    1
   148    61    58    1
   149    40    41    1
   150    55    56   ar
   151    55    53   ar
   152    41    42    1
   153    56    54   ar
   154    58    59    1
   155    58    57    1
   156    53    52   ar
   157    42    43    2
   158    59    60    2
   159    54    52   ar
   160    52    51    1
   161    51    48    1
   162    48    47    1
   163    48    49    1
   164    49    50    2
