@<TRIPOS>MOLECULE
tmp/2fmpD01.pdb
 125 119 0 0 0
SMALL
GASTEIGER

@<TRIPOS>ATOM
      1  N         -0.8520    4.8050   11.6970 N.3   170  GLY170     -0.1210
      2  CA         0.2080    3.9310   12.1850 C.3   170  GLY170      0.1956
      3  C         -0.0820    2.4440   12.0440 C.2   170  GLY170      0.2612
      4  O         -0.8640    2.0020   11.1730 O.2   170  GLY170     -0.2717
      5  N          0.5720    1.6520   12.8900 N.am  171  SER171     -0.1952
      6  CA         0.4000    0.1990   12.8510 C.3   171  SER171      0.1924
      7  C         -1.0600   -0.2150   12.9550 C.2   171  SER171      0.2314
      8  O         -1.4580   -1.2460   12.4030 O.2   171  SER171     -0.2863
      9  CB         1.2110   -0.4560   13.9720 C.3   171  SER171      0.2116
     10  OG         0.8440    0.0960   15.2360 O.3   171  SER171     -0.2180
     11  N         -2.6830   -0.3770    9.6970 N.3   174  ARG174     -0.1245
     12  CA        -2.1080   -1.4770    8.9280 C.3   174  ARG174      0.1563
     13  C         -2.6110   -2.8260    9.4360 C.2   174  ARG174      0.2260
     14  O         -2.1740   -3.8860    8.9610 O.2   174  ARG174     -0.2867
     15  CB        -0.5880   -1.4240    8.9610 C.3   174  ARG174      0.0307
     16  CG         0.0020   -0.1240    8.4090 C.3   174  ARG174      0.0489
     17  CD         1.5220   -0.2880    8.0400 C.3   174  ARG174      0.2205
     18  NE         2.3060   -0.8150    9.1710 N.pl3 174  ARG174     -0.0865
     19  CZ         2.8230   -0.0780   10.1450 C.cat 174  ARG174      0.5346
     20  NH1        2.6590    1.2400   10.1480 N.pl3 174  ARG174      0.1354
     21  NH2        3.5110   -0.6650   11.1250 N.pl3 174  ARG174      0.1354
     22  N          2.6660   -0.1850   19.0780 N.3   180  GLY180     -0.1210
     23  CA         3.5670    0.4130   20.0510 C.3   180  GLY180      0.1956
     24  C          2.9930    1.6380   20.7330 C.2   180  GLY180      0.2611
     25  O          3.3710    1.9530   21.8630 O.2   180  GLY180     -0.2717
     26  N          2.0900    2.3150   20.0320 N.am  181  ASP181     -0.1973
     27  CA         1.4660    3.5420   20.5080 C.3   181  ASP181      0.1709
     28  C          0.2310    3.8550   19.6560 C.2   181  ASP181      0.2293
     29  O         -0.2080    3.0200   18.8430 O.2   181  ASP181     -0.2864
     30  CB         2.4920    4.7060   20.4540 C.3   181  ASP181      0.1436
     31  CG         2.9050    5.1230   19.0280 C.2   181  ASP181      0.3671
     32  OD1        2.2770    4.7400   18.0180 O.co2 181  ASP181     -0.2456
     33  OD2        3.8810    5.8970   18.9360 O.co2 181  ASP181     -0.2456
     34  N         -1.4490    6.6180   16.9360 N.3   183  ASP183     -0.1239
     35  CA        -1.2150    7.7150   15.9930 C.3   183  ASP183      0.1674
     36  C         -2.5670    8.1700   15.4750 C.2   183  ASP183      0.2266
     37  O         -3.3520    7.3570   14.9700 O.2   183  ASP183     -0.2867
     38  CB        -0.3600    7.1960   14.8390 C.3   183  ASP183      0.1410
     39  CG         0.9420    6.6500   15.3310 C.2   183  ASP183      0.3668
     40  OD1        1.7360    7.4530   15.8550 O.co2 183  ASP183     -0.2456
     41  OD2        1.1490    5.4250   15.2780 O.co2 183  ASP183     -0.2456
     42  N          0.3390   10.3040   19.5180 N.3   247  ASP247     -0.1239
     43  CA         0.7490   11.3810   18.6100 C.3   247  ASP247      0.1674
     44  C         -0.5010   11.7930   17.8360 C.2   247  ASP247      0.2266
     45  O         -1.2440   10.9340   17.3620 O.2   247  ASP247     -0.2867
     46  CB         1.7810   10.8550   17.5940 C.3   247  ASP247      0.1410
     47  CG         3.0890   10.4500   18.2590 C.2   247  ASP247      0.3668
     48  OD1        3.5870   11.2330   19.0750 O.co2 247  ASP247     -0.2456
     49  OD2        3.5960    9.3370   18.0090 O.co2 247  ASP247     -0.2456
     50  N          1.2920    9.1700    4.6530 N.3   262  TYR262     -0.1227
     51  CA         2.4250    9.4010    5.5370 C.3   262  TYR262      0.1736
     52  C          2.2000    8.7520    6.9100 C.2   262  TYR262      0.2595
     53  O          3.0190    7.9670    7.3870 O.2   262  TYR262     -0.2718
     54  CB         2.6650   10.9130    5.7420 C.3   262  TYR262      0.0548
     55  CG         3.3250   11.2620    7.0620 C.ar  262  TYR262     -0.0200
     56  CD1        4.6610   10.9100    7.3350 C.ar  262  TYR262     -0.0009
     57  CD2        2.5670   11.8480    8.0970 C.ar  262  TYR262     -0.0009
     58  CE1        5.2240   11.1150    8.6190 C.ar  262  TYR262      0.0417
     59  CE2        3.1280   12.0590    9.3710 C.ar  262  TYR262      0.0417
     60  CZ         4.4470   11.6910    9.6210 C.ar  262  TYR262      0.1957
     61  OH         4.9820   11.9330   10.8830 O.3   262  TYR262     -0.2866
     62  N          1.0990    9.1130    7.5630 N.am  263  PHE263     -0.1962
     63  CA         0.8850    8.6180    8.9410 C.3   263  PHE263      0.1771
     64  C          0.6150    7.1380    9.0740 C.2   263  PHE263      0.2620
     65  O          0.7200    6.6030   10.1650 O.2   263  PHE263     -0.2715
     66  CB        -0.1890    9.4550    9.6580 C.3   263  PHE263      0.0574
     67  CG         0.1640    9.8500   11.0900 C.ar  263  PHE263     -0.0200
     68  CD1        1.4750    9.8110   11.5530 C.ar  263  PHE263     -0.0042
     69  CD2       -0.8450   10.2800   11.9570 C.ar  263  PHE263     -0.0042
     70  CE1        1.7880   10.1950   12.8580 C.ar  263  PHE263     -0.0003
     71  CE2       -0.5460   10.6710   13.2600 C.ar  263  PHE263     -0.0003
     72  CZ         0.7750   10.6290   13.7180 C.ar  263  PHE263     -0.0000
     73  N          0.1940    6.4820    8.0010 N.am  264  THR264     -0.1937
     74  CA        -0.0090    5.0410    8.0610 C.3   264  THR264      0.2028
     75  C          1.3300    4.3080    8.0460 C.2   264  THR264      0.2643
     76  O          1.4880    3.2950    8.6920 O.2   264  THR264     -0.2714
     77  CB        -0.8610    4.6210    6.8510 C.3   264  THR264      0.1808
     78  OG1       -2.1560    5.1680    7.0620 O.3   264  THR264     -0.2208
     79  CG2       -0.9820    3.0880    6.7370 C.3   264  THR264      0.0379
     80  N          2.3050    4.8370    7.3130 N.am  265  GLY265     -0.1939
     81  CA         3.6020    4.1690    7.2810 C.3   265  GLY265      0.2014
     82  C          3.5350    2.7800    6.6530 C.2   265  GLY265      0.2640
     83  O          2.6970    2.5280    5.7930 O.2   265  GLY265     -0.2714
     84  N          4.4070    1.8560    7.0630 N.am  266  SER266     -0.1935
     85  CA         5.4390    2.0790    8.0980 C.3   266  SER266      0.2055
     86  C          6.5240    3.0930    7.7410 C.2   266  SER266      0.2643
     87  O          6.5580    3.6140    6.6510 O.2   266  SER266     -0.2714
     88  CB         6.1250    0.7420    8.4050 C.3   266  SER266      0.2130
     89  OG         6.9900    0.3830    7.3130 O.3   266  SER266     -0.2179
     90  N          7.4200    3.3330    8.6960 N.am  267  ASP267     -0.1971
     91  CA         8.5050    4.2700    8.4640 C.3   267  ASP267      0.1709
     92  C          9.4200    3.7980    7.3360 C.2   267  ASP267      0.2293
     93  O          9.8200    4.6010    6.4890 O.2   267  ASP267     -0.2864
     94  CB         9.2780    4.5680    9.7660 C.3   267  ASP267      0.1436
     95  CG         9.9380    3.3410   10.4130 C.2   267  ASP267      0.3671
     96  OD1        9.5850    2.1710   10.1520 O.co2 267  ASP267     -0.2456
     97  OD2       10.8150    3.5750   11.2680 O.co2 267  ASP267     -0.2456
     98  N          7.6640    4.1490    4.0800 N.3   270  ASN270     -0.1225
     99  CA         7.6970    5.5200    3.5670 C.3   270  ASN270      0.1785
    100  C          9.0440    5.8880    2.9260 C.2   270  ASN270      0.2597
    101  O          9.0820    6.5820    1.9160 O.2   270  ASN270     -0.2718
    102  CB         7.3600    6.5350    4.6750 C.3   270  ASN270      0.1169
    103  CG         5.8880    6.5090    5.0850 C.2   270  ASN270      0.2627
    104  OD1        5.0260    5.9700    4.4010 O.2   270  ASN270     -0.2716
    105  ND2        5.5960    7.1490    6.2100 N.am  270  ASN270     -0.0877
    106  N         10.1430    5.4450    3.5480 N.am  271  LYS271     -0.1980
    107  CA        11.4850    5.7350    3.0600 C.3   271  LYS271      0.1596
    108  C         11.6320    5.0750    1.7090 C.2   271  LYS271      0.2287
    109  O         12.0880    5.6950    0.7460 O.2   271  LYS271     -0.2864
    110  CB        12.5390    5.1520    4.0150 C.3   271  LYS271      0.0298
    111  CG        12.7920    5.9580    5.2700 C.3   271  LYS271      0.0038
    112  CD        13.8540    5.2490    6.1190 C.3   271  LYS271      0.0206
    113  CE        14.4370    6.0980    7.2620 C.3   271  LYS271      0.1093
    114  NZ        15.3660    7.2010    6.8130 N.3   271  LYS271     -0.1314
    115  N          9.2280    6.9150   -0.8090 N.3   274  ARG274     -0.1245
    116  CA         9.7180    8.2380   -1.1430 C.3   274  ARG274      0.1563
    117  C         10.9910    8.1580   -1.9800 C.2   274  ARG274      0.2260
    118  O         11.1870    8.9830   -2.8650 O.2   274  ARG274     -0.2867
    119  CB         9.9260    9.0790    0.1140 C.3   274  ARG274      0.0307
    120  CG         8.5830    9.5480    0.6630 C.3   274  ARG274      0.0489
    121  CD         8.7310   10.2440    2.0080 C.3   274  ARG274      0.2205
    122  NE         7.4050   10.4850    2.5790 N.pl3 274  ARG274     -0.0865
    123  CZ         7.1510   11.4140    3.5030 C.cat 274  ARG274      0.5346
    124  NH1        8.1410   12.1850    3.9520 N.pl3 274  ARG274      0.1354
    125  NH2        5.9110   11.5870    3.9620 N.pl3 274  ARG274      0.1354
@<TRIPOS>BOND
     1   118   117    2
     2   117   116    1
     3   116   115    1
     4   116   119    1
     5   119   120    1
     6   120   121    1
     7   109   108    2
     8   108   107    1
     9   101   100    2
    10   121   122    1
    11   122   123    2
    12   100   106   am
    13   100    99    1
    14   107   106    1
    15   107   110    1
    16   123   124    1
    17   123   125    1
    18    99    98    1
    19    99   102    1
    20   110   111    1
    21   104   103    2
    22    50    51    1
    23   102   103    1
    24   103   105   am
    25   111   112    1
    26    51    54    1
    27    51    52    1
    28    54    55    1
    29    83    82    2
    30   112   113    1
    31    93    92    2
    32    87    86    2
    33    82    84   am
    34    82    81    1
    35    79    77    1
    36   114   113    1
    37    77    78    1
    38    77    74    1
    39    52    53    2
    40    52    62   am
    41    55    56   ar
    42    55    57   ar
    43    84    85    1
    44    81    80    1
    45    89    88    1
    46    80    75   am
    47    56    58   ar
    48    92    91    1
    49    62    63    1
    50    86    85    1
    51    86    90   am
    52    73    74    1
    53    73    64   am
    54    17    16    1
    55    17    18    1
    56    75    74    1
    57    75    76    2
    58    57    59   ar
    59    85    88    1
    60    16    15    1
    61    91    90    1
    62    91    94    1
    63    58    60   ar
    64    12    15    1
    65    12    13    1
    66    12    11    1
    67    63    64    1
    68    63    66    1
    69    14    13    2
    70    64    65    2
    71    18    19    2
    72    59    60   ar
    73    60    61    1
    74    66    67    1
    75    94    95    1
    76    19    20    1
    77    19    21    1
    78    96    95   ar
    79    95    97   ar
    80    67    68   ar
    81    67    69   ar
    82     4     3    2
    83    68    70   ar
    84     1     2    1
    85    69    71   ar
    86     3     2    1
    87     3     5   am
    88     8     7    2
    89     6     5    1
    90     6     7    1
    91     6     9    1
    92    70    72   ar
    93    71    72   ar
    94     9    10    1
    95    38    39    1
    96    38    35    1
    97    37    36    2
    98    41    39   ar
    99    39    40   ar
   100    36    35    1
   101    35    34    1
   102    45    44    2
   103    46    47    1
   104    46    43    1
   105    44    43    1
   106    49    47   ar
   107    32    31   ar
   108    47    48   ar
   109    43    42    1
   110    29    28    2
   111    33    31   ar
   112    31    30    1
   113    22    23    1
   114    28    27    1
   115    26    27    1
   116    26    24   am
   117    23    24    1
   118    30    27    1
   119    24    25    2
