@<TRIPOS>MOLECULE
tmp/2fmpD00.pdb
 102 98 0 0 0
SMALL
GASTEIGER

@<TRIPOS>ATOM
      1  N         24.6340    1.1470   15.7080 N.3    17  GLU17      -0.1245
      2  CA        25.1190    2.1950   14.8200 C.3    17  GLU17       0.1567
      3  C         24.4220    3.5330   15.0650 C.2    17  GLU17       0.2260
      4  O         25.0900    4.5640   15.0940 O.2    17  GLU17      -0.2867
      5  CB        25.0550    1.7730   13.3460 C.3    17  GLU17       0.0388
      6  CG        25.8810    0.5410   13.0090 C.3    17  GLU17       0.1160
      7  CD        27.3940    0.7350   13.1510 C.2    17  GLU17       0.3649
      8  OE1       27.8550    1.8670   13.3950 O.co2  17  GLU17      -0.2457
      9  OE2       28.1290   -0.2630   13.0060 O.co2  17  GLU17      -0.2457
     10  N         23.2480    6.4570    8.5560 N.3    25  HIS25      -0.1226
     11  CA        23.0540    5.7340    7.3140 C.3    25  HIS25       0.1752
     12  C         23.3200    4.2390    7.4690 C.2    25  HIS25       0.2595
     13  O         22.7690    3.4330    6.7180 O.2    25  HIS25      -0.2718
     14  CB        23.8430    6.3860    6.1680 C.3    25  HIS25       0.0759
     15  CG        23.4220    7.7980    5.8950 C.ar   25  HIS25       0.0818
     16  ND1       22.1280    8.1410    5.5670 N.ar   25  HIS25      -0.2268
     17  CD2       24.1140    8.9620    5.9600 C.ar   25  HIS25       0.1154
     18  CE1       22.0390    9.4550    5.4470 C.ar   25  HIS25       0.1986
     19  NE2       23.2300    9.9750    5.6810 N.ar   25  HIS25      -0.2212
     20  N         24.1100    3.8610    8.4710 N.am   26  LYS26      -0.1980
     21  CA        24.3740    2.4380    8.7300 C.3    26  LYS26       0.1596
     22  C         23.1300    1.9020    9.4580 C.2    26  LYS26       0.2287
     23  O         22.6940    0.7530    9.2210 O.2    26  LYS26      -0.2864
     24  CB        25.6310    2.2160    9.6030 C.3    26  LYS26       0.0298
     25  CG        26.9430    2.4870    8.8790 C.3    26  LYS26       0.0038
     26  CD        28.1200    2.0040    9.7000 C.3    26  LYS26       0.0206
     27  CE        29.4310    2.1690    8.9510 C.3    26  LYS26       0.1093
     28  NZ        30.5310    1.5130    9.6860 N.3    26  LYS26      -0.1314
     29  N         20.6470    1.3290    6.8630 N.3    29  ALA29      -0.1231
     30  CA        21.0200    0.2170    5.9950 C.3    29  ALA29       0.1694
     31  C         20.6920   -1.0980    6.6820 C.2    29  ALA29       0.2592
     32  O         20.1210   -2.0060    6.0610 O.2    29  ALA29      -0.2718
     33  CB        22.5090    0.2770    5.6320 C.3    29  ALA29       0.0304
     34  N         21.0690   -1.2170    7.9550 N.am   30  TYR30      -0.1976
     35  CA        20.7610   -2.4400    8.6770 C.3    30  TYR30       0.1639
     36  C         19.2480   -2.6800    8.7830 C.2    30  TYR30       0.2290
     37  O         18.7820   -3.8160    8.6710 O.2    30  TYR30      -0.2864
     38  CB        21.3820   -2.4350   10.0670 C.3    30  TYR30       0.0560
     39  CG        22.8450   -2.8320   10.0820 C.ar   30  TYR30      -0.0198
     40  CD1       23.2460   -4.1110    9.6370 C.ar   30  TYR30      -0.0009
     41  CD2       23.8010   -1.9820   10.6040 C.ar   30  TYR30      -0.0009
     42  CE1       24.5700   -4.5220    9.7350 C.ar   30  TYR30       0.0417
     43  CE2       25.1460   -2.3780   10.7180 C.ar   30  TYR30       0.0417
     44  CZ        25.5200   -3.6470   10.2800 C.ar   30  TYR30       0.1957
     45  OH        26.8430   -4.0210   10.3620 O.3    30  TYR30      -0.2866
     46  N         19.2790   -4.5150   -0.6230 N.3    55  GLY55      -0.1210
     47  CA        19.5310   -3.9370    0.6860 C.3    55  GLY55       0.1956
     48  C         20.4920   -4.7970    1.4710 C.2    55  GLY55       0.2612
     49  O         21.0750   -4.3550    2.4610 O.2    55  GLY55      -0.2717
     50  N         20.6880   -6.0250    1.0100 N.am   56  VAL56      -0.1965
     51  CA        21.6340   -6.9230    1.6670 C.3    56  VAL56       0.1727
     52  C         22.8730   -6.9640    0.7980 C.2    56  VAL56       0.2617
     53  O         22.7900   -7.3460   -0.3620 O.2    56  VAL56      -0.2715
     54  CB        21.0810   -8.3600    1.7820 C.3    56  VAL56       0.0290
     55  CG1       22.0790   -9.2680    2.5080 C.3    56  VAL56       0.0023
     56  CG2       19.7360   -8.3540    2.5370 C.3    56  VAL56       0.0023
     57  N         23.9930   -6.5350    1.3650 N.am   57  GLY57      -0.1940
     58  CA        25.2540   -6.5300    0.6530 C.3    57  GLY57       0.2014
     59  C         26.2630   -7.5620    1.1340 C.2    57  GLY57       0.2640
     60  O         25.9270   -8.5370    1.8140 O.2    57  GLY57      -0.2714
     61  N         27.5190   -7.3260    0.7610 N.am   58  THR58      -0.1936
     62  CA        28.6290   -8.2210    1.0790 C.3    58  THR58       0.2028
     63  C         28.8950   -8.4020    2.5770 C.2    58  THR58       0.2642
     64  O         29.0560   -9.5250    3.0750 O.2    58  THR58      -0.2714
     65  CB        29.9130   -7.7030    0.4110 C.3    58  THR58       0.1808
     66  OG1       29.6870   -7.5750   -0.9980 O.3    58  THR58      -0.2208
     67  CG2       31.0760   -8.6470    0.6680 C.3    58  THR58       0.0379
     68  N         28.8420   -7.2970    3.3020 N.am   59  LYS59      -0.1963
     69  CA        29.1310   -7.3400    4.7340 C.3    59  LYS59       0.1728
     70  C         28.0190   -8.0190    5.5350 C.2    59  LYS59       0.2616
     71  O         28.3110   -8.8340    6.4190 O.2    59  LYS59      -0.2715
     72  CB        29.4650   -5.9460    5.2540 C.3    59  LYS59       0.0311
     73  CG        30.6480   -5.2640    4.5530 C.3    59  LYS59       0.0038
     74  CD        31.9980   -5.6540    5.1540 C.3    59  LYS59       0.0206
     75  CE        32.2550   -4.9840    6.5100 C.3    59  LYS59       0.1093
     76  NZ        32.5950   -3.5310    6.4280 N.3    59  LYS59      -0.1314
     77  N         26.7560   -7.7380    5.2140 N.am   60  ILE60      -0.1977
     78  CA        25.6650   -8.4160    5.9170 C.3    60  ILE60       0.1596
     79  C         25.6430   -9.8990    5.5250 C.2    60  ILE60       0.2287
     80  O         25.3710  -10.7550    6.3560 O.2    60  ILE60      -0.2864
     81  CB        24.2940   -7.7140    5.7010 C.3    60  ILE60       0.0276
     82  CG1       24.2940   -6.3970    6.4690 C.3    60  ILE60       0.0022
     83  CG2       23.1330   -8.6170    6.1260 C.3    60  ILE60       0.0022
     84  CD1       23.2030   -5.4450    6.0610 C.3    60  ILE60       0.0001
     85  N         27.9970  -11.6100    7.6870 N.3    63  LYS63      -0.1245
     86  CA        27.4650  -11.7430    9.0370 C.3    63  LYS63       0.1561
     87  C         26.4370  -12.8480    9.1100 C.2    63  LYS63       0.2260
     88  O         26.3590  -13.5830   10.0950 O.2    63  LYS63      -0.2867
     89  CB        26.9220  -10.4000    9.5290 C.3    63  LYS63       0.0271
     90  CG        28.0380   -9.4100    9.8650 C.3    63  LYS63       0.0035
     91  CD        27.4700   -8.0240   10.2070 C.3    63  LYS63       0.0206
     92  CE        28.5280   -7.0620   10.6870 C.3    63  LYS63       0.1093
     93  NZ        29.5630   -6.7900    9.6640 N.3    63  LYS63      -0.1314
     94  N         31.0910   -9.7980   16.5520 N.3    75  LYS75      -0.1245
     95  CA        30.9940   -8.3430   16.6290 C.3    75  LYS75       0.1561
     96  C         29.9780   -7.8850   17.6850 C.2    75  LYS75       0.2260
     97  O         30.2430   -6.9630   18.4470 O.2    75  LYS75      -0.2867
     98  CB        30.6510   -7.7670   15.2620 C.3    75  LYS75       0.0271
     99  CG        30.5260   -6.2550   15.2310 C.3    75  LYS75       0.0035
    100  CD        30.1500   -5.7920   13.8190 C.3    75  LYS75       0.0206
    101  CE        29.9150   -4.3020   13.7680 C.3    75  LYS75       0.1093
    102  NZ        31.1480   -3.5390   13.4420 N.3    75  LYS75      -0.1314
@<TRIPOS>BOND
     1    66    65    1
     2    46    47    1
     3    53    52    2
     4    65    67    1
     5    65    62    1
     6    58    59    1
     7    58    57    1
     8    47    48    1
     9    61    62    1
    10    61    59   am
    11    52    57   am
    12    52    51    1
    13    50    48   am
    14    50    51    1
    15    62    63    1
    16    59    60    2
    17    48    49    2
    18    51    54    1
    19    54    55    1
    20    54    56    1
    21    63    64    2
    22    63    68   am
    23    68    69    1
    24    73    74    1
    25    73    72    1
    26    69    72    1
    27    69    70    1
    28    74    75    1
    29    77    70   am
    30    77    78    1
    31    18    16   ar
    32    18    19   ar
    33    79    78    1
    34    79    80    2
    35    70    71    2
    36    16    15   ar
    37    33    30    1
    38    19    17   ar
    39    81    78    1
    40    81    83    1
    41    81    82    1
    42    15    17   ar
    43    15    14    1
    44    30    31    1
    45    30    29    1
    46    84    82    1
    47    32    31    2
    48    14    11    1
    49    76    75    1
    50    31    34   am
    51    13    12    2
    52    11    12    1
    53    11    10    1
    54    12    20   am
    55    85    86    1
    56    34    35    1
    57    20    21    1
    58    37    36    2
    59    35    36    1
    60    35    38    1
    61    21    22    1
    62    21    24    1
    63    25    24    1
    64    25    26    1
    65    27    28    1
    66    27    26    1
    67    86    87    1
    68    86    89    1
    69    87    88    2
    70    23    22    2
    71    89    90    1
    72    40    42   ar
    73    40    39   ar
    74    93    92    1
    75    42    44   ar
    76    90    91    1
    77    38    39    1
    78    39    41   ar
    79    91    92    1
    80    44    45    1
    81    44    43   ar
    82    41    43   ar
    83     9     7   ar
    84     6     7    1
    85     6     5    1
    86     7     8   ar
    87     5     2    1
    88   102   101    1
    89   101   100    1
    90   100    99    1
    91     2     3    1
    92     2     1    1
    93     3     4    2
    94    99    98    1
    95    98    95    1
    96    94    95    1
    97    95    96    1
    98    96    97    2
