@<TRIPOS>MOLECULE
tmp/2fmtD00.pdb
 127 125 0 0 0
SMALL
GASTEIGER

@<TRIPOS>ATOM
      1  N         77.7690  -22.0580   12.6650 N.3    14  PHE14      -0.1241
      2  CA        78.9740  -21.8040   13.4460 C.3    14  PHE14       0.1605
      3  C         78.7320  -22.1510   14.9250 C.2    14  PHE14       0.2264
      4  O         79.6040  -22.6890   15.6180 O.2    14  PHE14      -0.2867
      5  CB        79.3610  -20.3410   13.3110 C.3    14  PHE14       0.0534
      6  CG        80.6870  -20.0290   13.8820 C.ar   14  PHE14      -0.0203
      7  CD1       81.8350  -20.6100   13.3560 C.ar   14  PHE14      -0.0042
      8  CD2       80.8060  -19.1710   14.9600 C.ar   14  PHE14      -0.0042
      9  CE1       83.0890  -20.3510   13.9190 C.ar   14  PHE14      -0.0003
     10  CE2       82.0660  -18.9020   15.5380 C.ar   14  PHE14      -0.0003
     11  CZ        83.1970  -19.4870   15.0100 C.ar   14  PHE14      -0.0000
     12  N         77.9540  -18.4960   24.9960 N.3    87  VAL87      -0.1231
     13  CA        77.2320  -17.8110   23.9340 C.3    87  VAL87       0.1692
     14  C         78.0810  -17.7510   22.6950 C.2    87  VAL87       0.2592
     15  O         79.2430  -17.3410   22.7720 O.2    87  VAL87      -0.2718
     16  CB        76.8660  -16.3630   24.3530 C.3    87  VAL87       0.0266
     17  CG1       76.0300  -15.7070   23.2630 C.3    87  VAL87       0.0020
     18  CG2       76.0960  -16.3740   25.6780 C.3    87  VAL87       0.0020
     19  N         77.5080  -18.1500   21.5590 N.am   88  VAL88      -0.1966
     20  CA        78.2480  -18.1330   20.2910 C.3    88  VAL88       0.1727
     21  C         77.3300  -17.7830   19.1310 C.2    88  VAL88       0.2616
     22  O         76.3600  -18.4980   18.8850 O.2    88  VAL88      -0.2715
     23  CB        78.8690  -19.4840   19.9880 C.3    88  VAL88       0.0290
     24  CG1       79.7980  -19.3510   18.8080 C.3    88  VAL88       0.0023
     25  CG2       79.6080  -20.0090   21.2030 C.3    88  VAL88       0.0023
     26  N         77.6520  -16.6910   18.4260 N.am   89  ALA89      -0.1963
     27  CA        76.8470  -16.2060   17.3090 C.3    89  ALA89       0.1728
     28  C         75.3660  -16.0810   17.6950 C.2    89  ALA89       0.2616
     29  O         74.4850  -16.7190   17.0680 O.2    89  ALA89      -0.2715
     30  CB        76.9840  -17.1320   16.1540 C.3    89  ALA89       0.0334
     31  N         75.1000  -15.2470   18.7110 N.am   90  TYR90      -0.1960
     32  CA        73.7320  -15.0450   19.2220 C.3    90  TYR90       0.1771
     33  C         73.2710  -13.6040   19.0330 C.2    90  TYR90       0.2620
     34  O         73.8870  -12.6740   19.5650 O.2    90  TYR90      -0.2715
     35  CB        73.6600  -15.4190   20.7140 C.3    90  TYR90       0.0574
     36  CG        72.2520  -15.6060   21.2630 C.ar   90  TYR90      -0.0198
     37  CD1       71.3090  -16.3640   20.5740 C.ar   90  TYR90      -0.0009
     38  CD2       71.8900  -15.0900   22.5060 C.ar   90  TYR90      -0.0009
     39  CE1       70.0390  -16.6230   21.1190 C.ar   90  TYR90       0.0417
     40  CE2       70.6180  -15.3430   23.0600 C.ar   90  TYR90       0.0417
     41  CZ        69.7010  -16.1020   22.3550 C.ar   90  TYR90       0.1957
     42  OH        68.4420  -16.3300   22.8840 O.3    90  TYR90      -0.2866
     43  N         72.1840  -13.4330   18.2850 N.am   91  GLY91      -0.1954
     44  CA        71.6730  -12.1000   18.0240 C.3    91  GLY91       0.1869
     45  C         71.3380  -11.3180   19.2780 C.2    91  GLY91       0.2309
     46  O         71.9530  -10.2730   19.5510 O.2    91  GLY91      -0.2863
     47  N         81.6080  -15.8770   25.8320 N.3   108  ASN108     -0.1225
     48  CA        81.2690  -15.7940   24.4280 C.3   108  ASN108      0.1785
     49  C         82.4600  -16.1530   23.5640 C.2   108  ASN108      0.2597
     50  O         83.5950  -15.7950   23.8790 O.2   108  ASN108     -0.2718
     51  CB        80.7930  -14.3700   24.1140 C.3   108  ASN108      0.1169
     52  CG        80.3920  -14.1960   22.6720 C.2   108  ASN108      0.2627
     53  OD1       81.2240  -13.9470   21.7980 O.2   108  ASN108     -0.2716
     54  ND2       79.1030  -14.3580   22.4080 N.am  108  ASN108     -0.0877
     55  N         82.1960  -16.8860   22.4890 N.am  109  VAL109     -0.1966
     56  CA        83.2450  -17.2590   21.5590 C.3   109  VAL109      0.1727
     57  C         83.2210  -16.1830   20.4800 C.2   109  VAL109      0.2616
     58  O         82.2760  -16.1160   19.6790 O.2   109  VAL109     -0.2715
     59  CB        82.9700  -18.6170   20.9300 C.3   109  VAL109      0.0290
     60  CG1       84.0960  -18.9670   20.0120 C.3   109  VAL109      0.0023
     61  CG2       82.8370  -19.6770   22.0190 C.3   109  VAL109      0.0023
     62  N         84.2380  -15.3260   20.4650 N.am  110  HIS110     -0.1959
     63  CA        84.2610  -14.2540   19.4820 C.3   110  HIS110      0.1787
     64  C         85.2500  -14.5120   18.3540 C.2   110  HIS110      0.2620
     65  O         86.4490  -14.7270   18.5980 O.2   110  HIS110     -0.2715
     66  CB        84.6120  -12.9280   20.1460 C.3   110  HIS110      0.0785
     67  CG        84.2240  -11.7330   19.3330 C.ar  110  HIS110      0.0821
     68  ND1       85.0710  -10.6670   19.1180 N.ar  110  HIS110     -0.2267
     69  CD2       83.0660  -11.4320   18.6970 C.ar  110  HIS110      0.1154
     70  CE1       84.4530   -9.7610   18.3850 C.ar  110  HIS110      0.1986
     71  NE2       83.2350  -10.1990   18.1150 N.ar  110  HIS110     -0.2212
     72  N         84.7510  -14.4510   17.1200 N.am  111  GLY111     -0.1954
     73  CA        85.5990  -14.7100   15.9640 C.3   111  GLY111      0.1869
     74  C         86.5650  -13.6160   15.5470 C.2   111  GLY111      0.2309
     75  O         86.5170  -13.1630   14.4030 O.2   111  GLY111     -0.2863
     76  N         82.4170   -6.6880   17.7880 N.3   119  GLY119     -0.1210
     77  CA        81.2150   -6.4100   17.0150 C.3   119  GLY119      0.1956
     78  C         80.3720   -7.5810   16.5570 C.2   119  GLY119      0.2611
     79  O         80.2080   -8.5590   17.2780 O.2   119  GLY119     -0.2717
     80  N         79.8400   -7.4770   15.3440 N.am  120  ALA120     -0.1979
     81  CA        78.9820   -8.5160   14.7940 C.3   120  ALA120      0.1597
     82  C         79.5620   -9.3070   13.6150 C.2   120  ALA120      0.2287
     83  O         79.1240  -10.4350   13.3330 O.2   120  ALA120     -0.2864
     84  CB        77.6500   -7.9080   14.3930 C.3   120  ALA120      0.0319
     85  N         83.3010   -9.8510   12.7940 N.3   122  PRO122     -0.2102
     86  CA        84.7520   -9.7850   13.0210 C.3   122  PRO122      0.1504
     87  C         85.5440  -10.6690   12.0460 C.2   122  PRO122      0.2575
     88  O         86.6930  -10.3860   11.7040 O.2   122  PRO122     -0.2718
     89  CB        84.8940  -10.2820   14.4730 C.3   122  PRO122      0.0282
     90  CG        83.4380  -10.2340   15.0270 C.3   122  PRO122      0.0208
     91  CD        82.6880  -10.7050   13.8190 C.3   122  PRO122      0.0893
     92  N         84.9370  -11.7660   11.6270 N.am  123  ILE123     -0.1980
     93  CA        85.6110  -12.6540   10.7070 C.3   123  ILE123      0.1595
     94  C         85.6940  -11.9450    9.3630 C.2   123  ILE123      0.2287
     95  O         86.7850  -11.5360    8.9440 O.2   123  ILE123     -0.2864
     96  CB        84.8340  -13.9760   10.5430 C.3   123  ILE123      0.0276
     97  CG1       84.8360  -14.7400   11.8570 C.3   123  ILE123      0.0022
     98  CG2       85.4570  -14.8290    9.4590 C.3   123  ILE123      0.0022
     99  CD1       84.1540  -16.0640   11.7640 C.3   123  ILE123      0.0001
    100  N         79.2730   -4.3480   24.4980 N.3   145  LEU145     -0.1231
    101  CA        79.5290   -5.1460   23.3100 C.3   145  LEU145      0.1693
    102  C         80.9390   -5.6920   23.3110 C.2   145  LEU145      0.2592
    103  O         81.9160   -4.9330   23.1990 O.2   145  LEU145     -0.2718
    104  CB        79.3280   -4.3090   22.0440 C.3   145  LEU145      0.0284
    105  CG        79.3370   -5.1150   20.7470 C.3   145  LEU145      0.0019
    106  CD1       78.0890   -6.0000   20.7460 C.3   145  LEU145      0.0001
    107  CD2       79.3600   -4.1840   19.5240 C.3   145  LEU145      0.0001
    108  N         81.0310   -7.0150   23.4340 N.am  146  ASP146     -0.1974
    109  CA        82.3170   -7.7110   23.4200 C.3   146  ASP146      0.1709
    110  C         83.3740   -6.9040   24.1850 C.2   146  ASP146      0.2293
    111  O         84.5140   -6.7420   23.7340 O.2   146  ASP146     -0.2864
    112  CB        82.7320   -7.9610   21.9590 C.3   146  ASP146      0.1436
    113  CG        81.6260   -8.6760   21.1570 C.2   146  ASP146      0.3671
    114  OD1       80.6080   -9.0830   21.7660 O.co2 146  ASP146     -0.2456
    115  OD2       81.7550   -8.8360   19.9230 O.co2 146  ASP146     -0.2456
    116  N         85.5150  -19.0150    8.2130 N.3   168  TYR168     -0.1241
    117  CA        84.5560  -19.5030    9.1990 C.3   168  TYR168      0.1605
    118  C         84.9300  -20.9360    9.5000 C.2   168  TYR168      0.2264
    119  O         85.1500  -21.2950   10.6670 O.2   168  TYR168     -0.2867
    120  CB        83.1180  -19.4260    8.6800 C.3   168  TYR168      0.0534
    121  CG        82.3710  -18.2380    9.2220 C.ar  168  TYR168     -0.0201
    122  CD1       82.7690  -16.9370    8.9100 C.ar  168  TYR168     -0.0009
    123  CD2       81.3140  -18.4090   10.1270 C.ar  168  TYR168     -0.0009
    124  CE1       82.1440  -15.8280    9.4890 C.ar  168  TYR168      0.0417
    125  CE2       80.6800  -17.3060   10.7130 C.ar  168  TYR168      0.0417
    126  CZ        81.1100  -16.0180   10.3930 C.ar  168  TYR168      0.1957
    127  OH        80.5480  -14.9270   11.0110 O.3   168  TYR168     -0.2866
@<TRIPOS>BOND
     1   116   117    1
     2   120   117    1
     3   120   121    1
     4   122   121   ar
     5   122   124   ar
     6    95    94    2
     7   117   118    1
     8   121   123   ar
     9    94    93    1
    10    98    96    1
    11   124   126   ar
    12   118   119    2
    13   123   125   ar
    14   126   125   ar
    15   126   127    1
    16    96    93    1
    17    96    97    1
    18    93    92    1
    19    92    87   am
    20    88    87    2
    21    99    97    1
    22    87    86    1
    23     1     2    1
    24    85    86    1
    25    85    91    1
    26    86    89    1
    27     5     2    1
    28     5     6    1
    29    83    82    2
    30     7     6   ar
    31     7     9   ar
    32     2     3    1
    33    82    81    1
    34    91    90    1
    35     6     8   ar
    36     9    11   ar
    37    84    81    1
    38    75    74    2
    39    89    90    1
    40    81    80    1
    41     3     4    2
    42     8    10   ar
    43    11    10   ar
    44    80    78   am
    45    74    73    1
    46    73    72    1
    47    30    27    1
    48    78    77    1
    49    78    79    2
    50    77    76    1
    51    29    28    2
    52    72    64   am
    53    27    28    1
    54    27    26    1
    55    28    31   am
    56    44    43    1
    57    44    45    1
    58    71    70   ar
    59    71    69   ar
    60    43    33   am
    61    64    65    2
    62    64    63    1
    63    70    68   ar
    64    26    21   am
    65    69    67   ar
    66    31    32    1
    67    24    23    1
    68    22    21    2
    69    33    32    1
    70    33    34    2
    71    68    67   ar
    72    21    20    1
    73    32    35    1
    74    45    46    2
    75    67    66    1
    76    63    66    1
    77    63    62    1
    78   107   105    1
    79    58    57    2
    80   115   113   ar
    81    23    20    1
    82    23    25    1
    83    60    59    1
    84    20    19    1
    85    62    57   am
    86    57    56    1
    87    37    39   ar
    88    37    36   ar
    89    35    36    1
    90   106   105    1
    91   105   104    1
    92    59    56    1
    93    59    61    1
    94    39    41   ar
    95   113   114   ar
    96   113   112    1
    97    36    38   ar
    98    56    55    1
    99    19    14   am
   100    53    52    2
   101   112   109    1
   102   104   101    1
   103    41    42    1
   104    41    40   ar
   105    54    52   am
   106    55    49   am
   107    38    40   ar
   108    52    51    1
   109    14    15    2
   110    14    13    1
   111   103   102    2
   112    17    16    1
   113   101   102    1
   114   101   100    1
   115   102   108   am
   116   109   108    1
   117   109   110    1
   118    49    50    2
   119    49    48    1
   120   111   110    2
   121    13    16    1
   122    13    12    1
   123    51    48    1
   124    16    18    1
   125    48    47    1
