@<TRIPOS>MOLECULE
tmp/2fmyA01.pdb
 89 83 0 0 0
SMALL
GASTEIGER

@<TRIPOS>ATOM
      1  N         -8.9570   28.4850   49.6420 N.3     3  GLN3       -0.1231
      2  CA        -9.1510   27.5510   48.5320 C.3     3  GLN3        0.1698
      3  C         -8.1210   27.7270   47.4020 C.2     3  GLN3        0.2592
      4  O         -8.1680   27.0110   46.3990 O.2     3  GLN3       -0.2718
      5  CB       -10.5900   27.6360   48.0020 C.3     3  GLN3        0.0381
      6  CG       -11.6690   27.3450   49.0600 C.3     3  GLN3        0.0905
      7  CD       -11.3530   26.1140   49.9150 C.2     3  GLN3        0.2608
      8  OE1      -11.3710   24.9790   49.4270 O.2     3  GLN3       -0.2717
      9  NE2      -11.0600   26.3400   51.1960 N.am    3  GLN3       -0.0878
     10  N         -7.1970   28.6760   47.5850 N.am    4  MET4       -0.1965
     11  CA        -6.1050   28.9400   46.6360 C.3     4  MET4        0.1736
     12  C         -4.9590   27.9390   46.7810 C.2     4  MET4        0.2616
     13  O         -4.0480   27.9060   45.9500 O.2     4  MET4       -0.2715
     14  CB        -5.5450   30.3580   46.8250 C.3     4  MET4        0.0427
     15  CG        -6.4680   31.4820   46.3950 C.3     4  MET4        0.0599
     16  SD        -6.8250   31.5440   44.6260 S.3     4  MET4       -0.1393
     17  CE        -7.9810   32.9100   44.6260 C.3     4  MET4        0.0692
     18  N         -5.0070   27.1380   47.8440 N.am    5  ARG5       -0.1963
     19  CA        -3.9290   26.2070   48.1780 C.3     5  ARG5        0.1729
     20  C         -3.7790   25.0940   47.1470 C.2     5  ARG5        0.2616
     21  O         -4.7650   24.6040   46.5950 O.2     5  ARG5       -0.2715
     22  CB        -4.1250   25.6200   49.5820 C.3     5  ARG5        0.0348
     23  CG        -5.3790   24.7830   49.7510 C.3     5  ARG5        0.0492
     24  CD        -5.3330   23.9640   51.0260 C.3     5  ARG5        0.2205
     25  NE        -5.9240   24.6650   52.1630 N.pl3   5  ARG5       -0.0865
     26  CZ        -7.1460   24.4260   52.6390 C.cat   5  ARG5        0.5346
     27  NH1       -7.9160   23.4980   52.0780 N.pl3   5  ARG5        0.1354
     28  NH2       -7.5990   25.1120   53.6820 N.pl3   5  ARG5        0.1354
     29  N         -2.5310   24.7240   46.8810 N.am    6  LEU6       -0.1977
     30  CA        -2.2230   23.5930   46.0080 C.3     6  LEU6        0.1596
     31  C         -1.6320   22.4490   46.8320 C.2     6  LEU6        0.2287
     32  O         -1.2790   21.4000   46.2870 O.2     6  LEU6       -0.2864
     33  CB        -1.2710   24.0030   44.8710 C.3     6  LEU6        0.0297
     34  CG        -1.5730   25.2050   43.9540 C.3     6  LEU6        0.0022
     35  CD1       -0.4800   25.3260   42.9150 C.3     6  LEU6        0.0001
     36  CD2       -2.9390   25.1230   43.2670 C.3     6  LEU6        0.0001
     37  N          2.1640   30.8240   45.2510 N.3   117  VAL117     -0.1245
     38  CA         0.9970   30.7260   44.3570 C.3   117  VAL117      0.1561
     39  C         -0.3250   30.9500   45.1110 C.2   117  VAL117      0.2260
     40  O         -1.1780   31.7100   44.6610 O.2   117  VAL117     -0.2867
     41  CB         0.9870   29.3490   43.6300 C.3   117  VAL117      0.0252
     42  CG1       -0.3870   29.0120   43.1070 C.3   117  VAL117      0.0019
     43  CG2        2.0410   29.3150   42.5090 C.3   117  VAL117      0.0019
     44  N         -2.3680   34.3580   44.5990 N.3   121  GLY121     -0.1210
     45  CA        -3.7480   34.1320   44.1630 C.3   121  GLY121      0.1956
     46  C         -4.7790   34.8350   45.0420 C.2   121  GLY121      0.2611
     47  O         -5.7000   35.4730   44.5340 O.2   121  GLY121     -0.2717
     48  N         -4.6200   34.7220   46.3590 N.am  122  ASP122     -0.1973
     49  CA        -5.4950   35.4120   47.3140 C.3   122  ASP122      0.1709
     50  C         -5.4000   36.9370   47.2390 C.2   122  ASP122      0.2293
     51  O         -6.4150   37.6070   47.3350 O.2   122  ASP122     -0.2864
     52  CB        -5.2470   34.9330   48.7490 C.3   122  ASP122      0.1436
     53  CG        -6.0200   33.6600   49.0890 C.2   122  ASP122      0.3671
     54  OD1       -5.4890   32.8190   49.8430 O.co2 122  ASP122     -0.2456
     55  OD2       -7.1610   33.4970   48.6150 O.co2 122  ASP122     -0.2456
     56  N         -4.4780   38.6600   44.5180 N.3   124  LEU124     -0.1231
     57  CA        -5.0600   38.9870   43.2210 C.3   124  LEU124      0.1693
     58  C         -6.5980   38.9190   43.2230 C.2   124  LEU124      0.2591
     59  O         -7.2630   39.8050   42.6930 O.2   124  LEU124     -0.2718
     60  CB        -4.4430   38.1040   42.1190 C.3   124  LEU124      0.0284
     61  CG        -4.8480   38.4050   40.6630 C.3   124  LEU124      0.0019
     62  CD1       -4.5190   39.8490   40.2620 C.3   124  LEU124      0.0001
     63  CD2       -4.1570   37.4210   39.7320 C.3   124  LEU124      0.0001
     64  N         -7.1520   37.8810   43.8470 N.am  125  LYS125     -0.1980
     65  CA        -8.6020   37.7480   44.0090 C.3   125  LYS125      0.1596
     66  C         -9.2090   38.9560   44.7350 C.2   125  LYS125      0.2287
     67  O        -10.2360   39.4940   44.3190 O.2   125  LYS125     -0.2864
     68  CB        -8.9510   36.4530   44.7570 C.3   125  LYS125      0.0298
     69  CG       -10.3940   36.4060   45.2240 C.3   125  LYS125      0.0038
     70  CD       -10.7150   35.1470   46.0110 C.3   125  LYS125      0.0206
     71  CE       -12.1890   35.1130   46.3510 C.3   125  LYS125      0.1093
     72  NZ       -12.6010   33.8070   46.9580 N.3   125  LYS125     -0.1314
     73  N         -8.9010   42.1180   42.3460 N.3   128  LEU128     -0.1245
     74  CA        -9.9150   42.2050   41.2700 C.3   128  LEU128      0.1561
     75  C        -11.2710   42.6520   41.8040 C.2   128  LEU128      0.2260
     76  O        -11.9780   43.4230   41.1650 O.2   128  LEU128     -0.2867
     77  CB       -10.0410   40.8860   40.4990 C.3   128  LEU128      0.0270
     78  CG        -8.7970   40.3960   39.7440 C.3   128  LEU128      0.0019
     79  CD1       -9.1180   39.1460   38.9450 C.3   128  LEU128      0.0001
     80  CD2       -8.2410   41.4760   38.8250 C.3   128  LEU128      0.0001
     81  N        -17.9380   35.5620   45.2280 N.3   193  LYS193     -0.1245
     82  CA       -16.4860   35.3980   45.3570 C.3   193  LYS193      0.1561
     83  C        -15.9800   35.7560   46.7540 C.2   193  LYS193      0.2260
     84  O        -15.0360   35.1470   47.2340 O.2   193  LYS193     -0.2867
     85  CB       -15.7410   36.2250   44.2950 C.3   193  LYS193      0.0271
     86  CG       -15.9420   35.7470   42.8580 C.3   193  LYS193      0.0035
     87  CD       -14.8830   34.7510   42.4440 C.3   193  LYS193      0.0206
     88  CE       -15.4040   33.7590   41.4000 C.3   193  LYS193      0.1093
     89  NZ       -16.3480   32.7190   41.9590 N.3   193  LYS193     -0.1314
@<TRIPOS>BOND
     1    80    78    1
     2    79    78    1
     3    63    61    1
     4    78    77    1
     5    62    61    1
     6    77    74    1
     7    61    60    1
     8    76    75    2
     9    74    75    1
    10    74    73    1
    11    88    89    1
    12    88    87    1
    13    60    57    1
    14    87    86    1
    15    43    41    1
    16    59    58    2
    17    86    85    1
    18    35    34    1
    19    42    41    1
    20    57    58    1
    21    57    56    1
    22    58    64   am
    23    36    34    1
    24    41    38    1
    25    64    65    1
    26    34    33    1
    27    65    66    1
    28    65    68    1
    29    45    44    1
    30    45    46    1
    31    85    82    1
    32    67    66    2
    33    38    39    1
    34    38    37    1
    35    47    46    2
    36    17    16    1
    37    16    15    1
    38    40    39    2
    39    68    69    1
    40    33    30    1
    41    46    48   am
    42    69    70    1
    43    81    82    1
    44    82    83    1
    45    13    12    2
    46    30    31    1
    47    30    29    1
    48    70    71    1
    49    32    31    2
    50    71    72    1
    51    48    49    1
    52    15    14    1
    53     4     3    2
    54    21    20    2
    55    11    12    1
    56    11    14    1
    57    11    10    1
    58    83    84    2
    59    12    18   am
    60    29    20   am
    61    20    19    1
    62    50    49    1
    63    50    51    2
    64    49    52    1
    65     3    10   am
    66     3     2    1
    67    18    19    1
    68     5     2    1
    69     5     6    1
    70    19    22    1
    71     2     1    1
    72    55    53   ar
    73    52    53    1
    74     6     7    1
    75    53    54   ar
    76     8     7    2
    77    22    23    1
    78    23    24    1
    79     7     9   am
    80    24    25    1
    81    27    26    1
    82    25    26    2
    83    26    28    1
