@<TRIPOS>MOLECULE
tmp/2fmzA00.pdb
 120 119 0 0 0
SMALL
GASTEIGER

@<TRIPOS>ATOM
      1  N         11.0020   -0.0940    7.8690 N.3     1  HIS1       -0.1226
      2  CA         9.6630    0.3490    8.3540 C.3     1  HIS1        0.1752
      3  C          9.0820   -0.7150    9.2760 C.2     1  HIS1        0.2596
      4  O          9.3760   -1.9030    9.1290 O.2     1  HIS1       -0.2718
      5  CB         8.7230    0.5680    7.1660 C.3     1  HIS1        0.0759
      6  CG         7.4030    1.1690    7.5380 C.ar    1  HIS1        0.0818
      7  ND1        7.2730    2.4700    7.9760 N.ar    1  HIS1       -0.2268
      8  CD2        6.1530    0.6490    7.5310 C.ar    1  HIS1        0.1154
      9  CE1        6.0000    2.7250    8.2210 C.ar    1  HIS1        0.1986
     10  NE2        5.2990    1.6360    7.9590 N.ar    1  HIS1       -0.2212
     11  N          8.2570   -0.2950   10.2280 N.am    2  TRP2       -0.1976
     12  CA         7.6590   -1.2490   11.1470 C.3     2  TRP2        0.1640
     13  C          6.6660   -2.1350   10.4050 C.2     2  TRP2        0.2290
     14  O          6.0930   -1.7320    9.3880 O.2     2  TRP2       -0.2864
     15  CB         6.9520   -0.5330   12.3050 C.3     2  TRP2        0.0576
     16  CG         5.7070    0.2170   11.9250 C.ar    2  TRP2        0.0006
     17  CD1        5.6120    1.5280   11.5520 C.ar    2  TRP2        0.0946
     18  CD2        4.3740   -0.3050   11.9030 C.ar    2  TRP2        0.0152
     19  NE1        4.2980    1.8550   11.3040 N.ar    2  TRP2       -0.2442
     20  CE2        3.5190    0.7480   11.5120 C.ar    2  TRP2        0.0810
     21  CE3        3.8190   -1.5630   12.1770 C.ar    2  TRP2        0.0012
     22  CZ2        2.1370    0.5800   11.3890 C.ar    2  TRP2        0.0191
     23  CZ3        2.4460   -1.7260   12.0540 C.ar    2  TRP2        0.0001
     24  CH2        1.6210   -0.6610   11.6640 C.ar    2  TRP2        0.0015
     25  N          9.8240    3.3370   18.7210 N.3    17  PHE17      -0.1241
     26  CA         8.7430    3.8790   19.5400 C.3    17  PHE17       0.1605
     27  C          8.8410    3.3630   20.9720 C.2    17  PHE17       0.2264
     28  O          8.1420    2.4290   21.3590 O.2    17  PHE17      -0.2867
     29  CB         7.4040    3.4890   18.9170 C.3    17  PHE17       0.0534
     30  CG         7.3040    3.8460   17.4650 C.ar   17  PHE17      -0.0203
     31  CD1        7.0370    5.1520   17.0720 C.ar   17  PHE17      -0.0042
     32  CD2        7.5380    2.8880   16.4860 C.ar   17  PHE17      -0.0042
     33  CE1        7.0090    5.4980   15.7200 C.ar   17  PHE17      -0.0003
     34  CE2        7.5140    3.2230   15.1350 C.ar   17  PHE17      -0.0003
     35  CZ         7.2480    4.5320   14.7520 C.ar   17  PHE17      -0.0000
     36  N         -3.2830    0.3820    3.5530 N.3    59  ASN59      -0.1240
     37  CA        -2.1280    1.1600    3.9990 C.3    59  ASN59       0.1653
     38  C         -0.8640    0.3510    4.2680 C.2    59  ASN59       0.2266
     39  O          0.0790    0.8530    4.8850 O.2    59  ASN59      -0.2867
     40  CB        -2.4780    1.9580    5.2570 C.3    59  ASN59       0.1155
     41  CG        -2.9470    1.0740    6.3900 C.2    59  ASN59       0.2627
     42  OD1       -2.5070   -0.0700    6.5220 O.2    59  ASN59      -0.2716
     43  ND2       -3.8370    1.6030    7.2250 N.am   59  ASN59      -0.0877
     44  N         -0.6350   -2.3140    6.1720 N.3    61  HIS61      -0.1241
     45  CA        -0.7030   -3.0750    7.4190 C.3    61  HIS61       0.1621
     46  C         -2.1330   -3.4650    7.7850 C.2    61  HIS61       0.2264
     47  O         -2.3570   -4.2150    8.7350 O.2    61  HIS61      -0.2867
     48  CB        -0.0370   -2.3070    8.5680 C.3    61  HIS61       0.0745
     49  CG        -0.6620   -0.9830    8.8680 C.ar   61  HIS61       0.0817
     50  ND1       -1.9090   -0.8610    9.4430 N.ar   61  HIS61      -0.2268
     51  CD2       -0.2010    0.2780    8.6970 C.ar   61  HIS61       0.1154
     52  CE1       -2.1880    0.4180    9.6150 C.ar   61  HIS61       0.1986
     53  NE2       -1.1680    1.1310    9.1710 N.ar   61  HIS61      -0.2212
     54  N         -8.2720    0.6150    5.8100 N.3    64  ASN64      -0.1240
     55  CA        -9.1020    1.5620    6.5380 C.3    64  ASN64       0.1653
     56  C        -10.3370    1.9650    5.7580 C.2    64  ASN64       0.2266
     57  O        -10.2410    2.3260    4.5850 O.2    64  ASN64      -0.2867
     58  CB        -8.3260    2.8530    6.8280 C.3    64  ASN64       0.1155
     59  CG        -7.2370    2.6830    7.8610 C.2    64  ASN64       0.2627
     60  OD1       -6.4460    3.6020    8.0900 O.2    64  ASN64      -0.2716
     61  ND2       -7.1890    1.5240    8.4980 N.am   64  ASN64      -0.0877
     62  N        -12.5310    6.3730   11.1460 N.3    89  GLN89      -0.1245
     63  CA       -12.2600    5.2220   10.2940 C.3    89  GLN89       0.1566
     64  C        -12.3620    3.9400   11.0790 C.2    89  GLN89       0.2260
     65  O        -12.3580    3.9530   12.3070 O.2    89  GLN89      -0.2867
     66  CB       -10.8420    5.3070    9.7210 C.3    89  GLN89       0.0367
     67  CG        -9.7540    5.3590   10.8050 C.3    89  GLN89       0.0905
     68  CD        -9.0230    4.0380   11.0370 C.2    89  GLN89       0.2608
     69  OE1       -9.6310    2.9720   11.1250 O.2    89  GLN89      -0.2717
     70  NE2       -7.7050    4.1170   11.1590 N.am   89  GLN89      -0.0878
     71  N        -11.0420   -0.3740   10.9000 N.3    91  HIS91      -0.1241
     72  CA       -10.1720   -1.3360   10.2570 C.3    91  HIS91       0.1621
     73  C        -10.2210   -2.6010   11.0850 C.2    91  HIS91       0.2264
     74  O        -10.8340   -2.6270   12.1550 O.2    91  HIS91      -0.2867
     75  CB        -8.7360   -0.8220   10.2100 C.3    91  HIS91       0.0745
     76  CG        -8.1710   -0.5130   11.5590 C.ar   91  HIS91       0.0817
     77  ND1       -8.3320    0.7120   12.1690 N.ar   91  HIS91      -0.2268
     78  CD2       -7.4970   -1.2870   12.4420 C.ar   91  HIS91       0.1154
     79  CE1       -7.7830    0.6790   13.3700 C.ar   91  HIS91       0.1986
     80  NE2       -7.2700   -0.5240   13.5590 N.ar   91  HIS91      -0.2212
     81  N         -8.1290   15.1650   14.7300 N.3   127  PHE127     -0.1241
     82  CA        -7.5240   13.9010   15.1240 C.3   127  PHE127      0.1605
     83  C         -6.0790   14.0660   15.5860 C.2   127  PHE127      0.2264
     84  O         -5.6530   13.4460   16.5650 O.2   127  PHE127     -0.2867
     85  CB        -7.5780   12.9230   13.9490 C.3   127  PHE127      0.0534
     86  CG        -6.9930   11.5770   14.2530 C.ar  127  PHE127     -0.0203
     87  CD1       -7.7670   10.5890   14.8510 C.ar  127  PHE127     -0.0042
     88  CD2       -5.6570   11.3020   13.9660 C.ar  127  PHE127     -0.0042
     89  CE1       -7.2180    9.3460   15.1590 C.ar  127  PHE127     -0.0003
     90  CE2       -5.1000   10.0620   14.2710 C.ar  127  PHE127     -0.0003
     91  CZ        -5.8800    9.0850   14.8680 C.ar  127  PHE127     -0.0000
     92  N         -2.9070    3.1750   21.0570 N.3   194  LEU194     -0.1245
     93  CA        -3.0670    2.7810   19.6690 C.3   194  LEU194      0.1561
     94  C         -2.3030    1.4580   19.6510 C.2   194  LEU194      0.2260
     95  O         -1.3030    1.3140   20.3660 O.2   194  LEU194     -0.2867
     96  CB        -2.3630    3.7810   18.7500 C.3   194  LEU194      0.0270
     97  CG        -2.7940    5.2480   18.8230 C.3   194  LEU194      0.0019
     98  CD1       -1.8880    6.1030   17.9440 C.3   194  LEU194      0.0001
     99  CD2       -4.2410    5.3680   18.3830 C.3   194  LEU194      0.0001
    100  N         -0.8690    0.2000   16.9510 N.3   196  THR196     -0.1204
    101  CA         0.1240    0.2590   15.8840 C.3   196  THR196      0.1979
    102  C          0.9430    1.5110   16.1430 C.2   196  THR196      0.2460
    103  O          0.4470    2.4700   16.7320 O.2   196  THR196     -0.2732
    104  CB        -0.5100    0.4190   14.4880 C.3   196  THR196      0.1783
    105  OG1       -1.3900    1.5480   14.4970 O.3   196  THR196     -0.2211
    106  CG2       -1.2750   -0.8230   14.0870 C.3   196  THR196      0.0376
    107  N          2.2170    1.5140   15.7260 N.am  197  PRO197     -0.2718
    108  CA         3.0370    2.7070   15.9430 C.3   197  PRO197      0.1520
    109  C          2.2500    3.8970   15.3900 C.2   197  PRO197      0.2440
    110  O          1.5500    3.7620   14.3860 O.2   197  PRO197     -0.2731
    111  CB         4.2870    2.4040   15.1290 C.3   197  PRO197      0.0310
    112  CG         4.4330    0.9280   15.2980 C.3   197  PRO197      0.0237
    113  CD         3.0070    0.4210   15.1340 C.3   197  PRO197      0.0939
    114  N          2.3940    5.0850   15.9950 N.am  198  PRO198     -0.2727
    115  CA         3.2290    5.4340   17.1460 C.3   198  PRO198      0.1402
    116  C          2.8100    4.9520   18.5400 C.2   198  PRO198      0.2269
    117  O          3.3600    5.4130   19.5390 O.2   198  PRO198     -0.2865
    118  CB         3.2970    6.9520   17.0560 C.3   198  PRO198      0.0296
    119  CG         1.9260    7.2990   16.5750 C.3   198  PRO198      0.0237
    120  CD         1.6730    6.2720   15.4960 C.3   198  PRO198      0.0939
@<TRIPOS>BOND
     1    36    37    1
     2    37    38    1
     3    37    40    1
     4    38    39    2
     5    57    56    2
     6    40    41    1
     7    56    55    1
     8    54    55    1
     9    44    45    1
    10    41    42    2
    11    41    43   am
    12    55    58    1
    13    58    59    1
    14     5     6    1
    15     5     2    1
    16    45    46    1
    17    45    48    1
    18     8     6   ar
    19     8    10   ar
    20     6     7   ar
    21    46    47    2
    22    59    60    2
    23    59    61   am
    24     1     2    1
    25    10     9   ar
    26     7     9   ar
    27     2     3    1
    28    48    49    1
    29    51    49   ar
    30    51    53   ar
    31    49    50   ar
    32     4     3    2
    33    53    52   ar
    34     3    11   am
    35    14    13    2
    36    50    52   ar
    37    66    63    1
    38    66    67    1
    39    75    72    1
    40    75    76    1
    41    11    12    1
    42    72    71    1
    43    72    73    1
    44    63    64    1
    45    63    62    1
    46    13    12    1
    47    67    68    1
    48    68    69    2
    49    68    70   am
    50    64    65    2
    51    73    74    2
    52    12    15    1
    53    19    20   ar
    54    19    17   ar
    55    22    20   ar
    56    22    24   ar
    57    20    18   ar
    58    17    16   ar
    59    76    77   ar
    60    76    78   ar
    61    24    23   ar
    62    18    16   ar
    63    18    21   ar
    64    16    15    1
    65    23    21   ar
    66    77    79   ar
    67    78    80   ar
    68    79    80   ar
    69    85    86    1
    70    85    82    1
    71    88    86   ar
    72    88    90   ar
    73   106   104    1
    74    86    87   ar
    75    90    91   ar
    76   110   109    2
    77   104   105    1
    78   104   101    1
    79    81    82    1
    80    35    34   ar
    81    35    33   ar
    82    87    89   ar
    83    91    89   ar
    84    82    83    1
    85   111   112    1
    86   111   108    1
    87   113   112    1
    88   113   107    1
    89    34    32   ar
    90   109   108    1
    91   109   114   am
    92   120   114    1
    93   120   119    1
    94    83    84    2
    95    33    31   ar
    96   107   108    1
    97   107   102   am
    98   101   102    1
    99   101   100    1
   100   114   115    1
   101   102   103    2
   102    32    30   ar
   103   119   118    1
   104   118   115    1
   105    31    30   ar
   106   115   116    1
   107    30    29    1
   108    98    97    1
   109    99    97    1
   110   116   117    2
   111    25    26    1
   112    96    97    1
   113    96    93    1
   114    29    26    1
   115    26    27    1
   116    94    93    1
   117    94    95    2
   118    93    92    1
   119    27    28    2
