@<TRIPOS>MOLECULE
tmp/2fn1B00.pdb
 133 124 0 0 0
SMALL
GASTEIGER

@<TRIPOS>ATOM
      1  N         16.4570  -28.4620   -5.5270 N.3   170  LYS170     -0.1245
      2  CA        15.0110  -28.4430   -5.5350 C.3   170  LYS170      0.1561
      3  C         14.4870  -29.5080   -6.4580 C.2   170  LYS170      0.2260
      4  O         15.0200  -29.6910   -7.5550 O.2   170  LYS170     -0.2867
      5  CB        14.5220  -27.0880   -6.0300 C.3   170  LYS170      0.0271
      6  CG        13.0070  -26.9710   -6.0000 C.3   170  LYS170      0.0035
      7  CD        12.5680  -25.6010   -6.4670 C.3   170  LYS170      0.0206
      8  CE        11.0980  -25.4360   -6.1590 C.3   170  LYS170      0.1093
      9  NZ        10.6260  -24.1470   -6.7130 N.3   170  LYS170     -0.1314
     10  N         10.4250  -31.2180   -7.6890 N.3   172  ILE172     -0.1245
     11  CA         8.9830  -31.4130   -7.5220 C.3   172  ILE172      0.1561
     12  C          8.6980  -32.8970   -7.4640 C.2   172  ILE172      0.2260
     13  O          8.9460  -33.6220   -8.4330 O.2   172  ILE172     -0.2867
     14  CB         8.1090  -30.7190   -8.6130 C.3   172  ILE172      0.0252
     15  CG1        8.0290  -29.2150   -8.3490 C.3   172  ILE172      0.0019
     16  CG2        6.6700  -31.3330   -8.6120 C.3   172  ILE172      0.0019
     17  CD1        9.3650  -28.4000   -8.5890 C.3   172  ILE172      0.0001
     18  N         -2.5720  -23.2590  -13.9440 N.3   216  PRO216     -0.2102
     19  CA        -2.2790  -22.1010  -13.1140 C.3   216  PRO216      0.1504
     20  C         -1.1700  -21.2020  -13.6830 C.2   216  PRO216      0.2575
     21  O         -1.0490  -20.0560  -13.2480 O.2   216  PRO216     -0.2718
     22  CB        -1.8160  -22.7400  -11.8020 C.3   216  PRO216      0.0282
     23  CG        -1.0930  -24.0090  -12.2780 C.3   216  PRO216      0.0208
     24  CD        -1.9060  -24.4920  -13.4770 C.3   216  PRO216      0.0893
     25  N         -0.3510  -21.7150  -14.6060 N.am  217  GLU217     -0.1980
     26  CA         0.7610  -20.9360  -15.1530 C.3   217  GLU217      0.1602
     27  C          1.0590  -21.1880  -16.5920 C.2   217  GLU217      0.2287
     28  O          0.8000  -22.2670  -17.1180 O.2   217  GLU217     -0.2864
     29  CB         2.0510  -21.0420  -14.3290 C.3   217  GLU217      0.0415
     30  CG         2.6890  -22.3640  -14.2550 C.3   217  GLU217      0.1163
     31  CD         3.8560  -22.3790  -13.2480 C.2   217  GLU217      0.3649
     32  OE1        4.9750  -21.9280  -13.5850 O.co2 217  GLU217     -0.2457
     33  OE2        3.6340  -22.8450  -12.1030 O.co2 217  GLU217     -0.2457
     34  N          5.4910  -19.6860  -11.3410 N.3   232  LEU232     -0.1231
     35  CA         4.7580  -19.6720  -10.0730 C.3   232  LEU232      0.1693
     36  C          5.3930  -20.7130   -9.1760 C.2   232  LEU232      0.2592
     37  O          5.7150  -21.7950   -9.6430 O.2   232  LEU232     -0.2718
     38  CB         3.2800  -20.0720  -10.2850 C.3   232  LEU232      0.0284
     39  CG         2.1720  -19.0310  -10.2630 C.3   232  LEU232      0.0019
     40  CD1        2.4030  -17.9040  -11.2790 C.3   232  LEU232      0.0001
     41  CD2        0.8730  -19.7530  -10.5880 C.3   232  LEU232      0.0001
     42  N          5.5920  -20.3810   -7.9030 N.am  233  ALA233     -0.1966
     43  CA         6.1950  -21.3010   -6.9350 C.3   233  ALA233      0.1728
     44  C          6.0050  -20.6930   -5.5760 C.2   233  ALA233      0.2617
     45  O          6.2110  -19.5140   -5.4070 O.2   233  ALA233     -0.2715
     46  CB         7.7000  -21.5240   -7.2170 C.3   233  ALA233      0.0334
     47  N          5.6240  -21.5030   -4.5970 N.am  234  GLY234     -0.1940
     48  CA         5.3290  -20.9820   -3.2760 C.3   234  GLY234      0.2014
     49  C          3.8000  -20.9540   -3.1980 C.2   234  GLY234      0.2639
     50  O          3.1380  -20.4310   -4.1080 O.2   234  GLY234     -0.2714
     51  N          3.2390  -21.5310   -2.1330 N.am  235  THR235     -0.1950
     52  CA         1.7830  -21.7600   -2.0480 C.3   235  THR235      0.1897
     53  C          1.2350  -21.5730   -0.6460 C.2   235  THR235      0.2313
     54  O          1.8860  -21.9450    0.3330 O.2   235  THR235     -0.2863
     55  CB         1.4300  -23.1990   -2.4830 C.3   235  THR235      0.1794
     56  OG1        1.9330  -23.4220   -3.8050 O.3   235  THR235     -0.2208
     57  CG2       -0.0980  -23.4710   -2.4320 C.3   235  THR235      0.0378
     58  N         11.7850  -20.6420   -2.1520 N.3   261  GLU261     -0.1245
     59  CA        11.3250  -21.6280   -3.1170 C.3   261  GLU261      0.1567
     60  C         10.9490  -20.9270   -4.4170 C.2   261  GLU261      0.2260
     61  O         11.2080  -21.4560   -5.5090 O.2   261  GLU261     -0.2867
     62  CB        10.1600  -22.3850   -2.4950 C.3   261  GLU261      0.0388
     63  CG         9.1750  -22.9360   -3.4610 C.3   261  GLU261      0.1160
     64  CD         8.1690  -23.8360   -2.7910 C.2   261  GLU261      0.3649
     65  OE1        8.1520  -23.9320   -1.5450 O.co2 261  GLU261     -0.2457
     66  OE2        7.3840  -24.4570   -3.5300 O.co2 261  GLU261     -0.2457
     67  N         -0.3330  -18.4100   -5.1050 N.3   298  HIS298     -0.1241
     68  CA         1.0440  -18.7100   -5.3120 C.3   298  HIS298      0.1621
     69  C          1.7710  -17.3970   -5.4490 C.2   298  HIS298      0.2264
     70  O          1.1680  -16.3710   -5.8070 O.2   298  HIS298     -0.2867
     71  CB         1.1890  -19.4700   -6.6450 C.3   298  HIS298      0.0745
     72  CG         0.4240  -20.7670   -6.7070 C.ar  298  HIS298      0.0817
     73  ND1        0.5740  -21.7630   -5.7690 N.ar  298  HIS298     -0.2268
     74  CD2       -0.4800  -21.2340   -7.6060 C.ar  298  HIS298      0.1154
     75  CE1       -0.2020  -22.7820   -6.0800 C.ar  298  HIS298      0.1986
     76  NE2       -0.8410  -22.4900   -7.1980 N.ar  298  HIS298     -0.2212
     77  N          9.3790  -24.9850  -12.1560 N.3   325  THR325     -0.1218
     78  CA         8.3750  -25.1310  -11.0800 C.3   325  THR325      0.1862
     79  C          7.6360  -26.5090  -11.0320 C.2   325  THR325      0.2287
     80  O          6.8040  -26.7350  -10.1540 O.2   325  THR325     -0.2866
     81  CB         7.3220  -24.0060  -11.1950 C.3   325  THR325      0.1770
     82  OG1        6.3630  -24.3500  -12.2160 O.3   325  THR325     -0.2211
     83  CG2        7.9970  -22.6350  -11.4960 C.3   325  THR325      0.0375
     84  N         -1.0350  -28.6130  -14.8730 N.3   367  LEU367     -0.1231
     85  CA        -1.1840  -29.0080  -13.4690 C.3   367  LEU367      0.1693
     86  C         -2.6540  -28.7650  -13.2070 C.2   367  LEU367      0.2591
     87  O         -3.3480  -28.2580  -14.1090 O.2   367  LEU367     -0.2718
     88  CB        -0.3520  -28.1280  -12.5460 C.3   367  LEU367      0.0284
     89  CG         1.1360  -27.9590  -12.8250 C.3   367  LEU367      0.0019
     90  CD1        1.6080  -26.7780  -11.9520 C.3   367  LEU367      0.0001
     91  CD2        1.9700  -29.2450  -12.5500 C.3   367  LEU367      0.0001
     92  N         -3.1470  -29.1190  -12.0120 N.am  368  ARG368     -0.1980
     93  CA        -4.5880  -28.9380  -11.6800 C.3   368  ARG368      0.1597
     94  C         -5.5020  -29.5760  -12.7460 C.2   368  ARG368      0.2287
     95  O         -6.5400  -29.0090  -13.1700 O.2   368  ARG368     -0.2864
     96  CB        -4.9110  -27.4590  -11.4750 C.3   368  ARG368      0.0334
     97  CG        -3.7460  -26.6940  -10.8560 C.3   368  ARG368      0.0492
     98  CD        -3.4950  -27.0650   -9.3950 C.3   368  ARG368      0.2205
     99  NE        -2.1150  -26.7680   -9.0240 N.pl3 368  ARG368     -0.0865
    100  CZ        -1.6580  -25.5640   -8.6830 C.cat 368  ARG368      0.5346
    101  NH1       -2.4670  -24.5080   -8.6030 N.pl3 368  ARG368      0.1354
    102  NH2       -0.3730  -25.4190   -8.3920 N.pl3 368  ARG368      0.1354
    103  N          1.8760  -32.2060   -7.1700 N.3   382  GLY382     -0.1210
    104  CA         3.1280  -32.2930   -6.4660 C.3   382  GLY382      0.1956
    105  C          3.4390  -31.0670   -5.6580 C.2   382  GLY382      0.2612
    106  O          2.5740  -30.2410   -5.4070 O.2   382  GLY382     -0.2717
    107  N          4.6900  -30.9630   -5.2240 N.am  383  ALA383     -0.1965
    108  CA         5.1270  -29.8120   -4.4270 C.3   383  ALA383      0.1728
    109  C          6.6280  -29.6650   -4.6070 C.2   383  ALA383      0.2616
    110  O          7.3330  -30.6640   -4.8020 O.2   383  ALA383     -0.2715
    111  CB         4.7470  -29.9910   -2.9320 C.3   383  ALA383      0.0334
    112  N          7.0920  -28.4160   -4.6190 N.am  384  GLY384     -0.1955
    113  CA         8.4930  -28.1000   -4.7860 C.3   384  GLY384      0.1869
    114  C          9.1890  -28.3200   -3.4520 C.2   384  GLY384      0.2309
    115  O          8.9060  -27.6130   -2.4700 O.2   384  GLY384     -0.2863
    116  N          0.0730  -29.4470    1.1880 N.3   397  GLU397     -0.1245
    117  CA         0.1320  -28.6320   -0.0230 C.3   397  GLU397      0.1567
    118  C         -0.4340  -29.3660   -1.2600 C.2   397  GLU397      0.2260
    119  O         -1.2800  -28.8270   -1.9510 O.2   397  GLU397     -0.2867
    120  CB         1.5710  -28.1360   -0.2700 C.3   397  GLU397      0.0388
    121  CG         1.6430  -27.1270   -1.3850 C.3   397  GLU397      0.1160
    122  CD         2.9140  -26.3190   -1.3500 C.2   397  GLU397      0.3649
    123  OE1        3.1320  -25.6070   -0.3580 O.co2 397  GLU397     -0.2457
    124  OE2        3.6860  -26.3550   -2.3310 O.co2 397  GLU397     -0.2457
    125  N         -3.8820  -28.0240   -3.4910 N.3   401  LYS401     -0.1245
    126  CA        -3.8250  -27.9680   -4.9750 C.3   401  LYS401      0.1561
    127  C         -4.8220  -28.9380   -5.6340 C.2   401  LYS401      0.2260
    128  O         -5.5410  -28.5530   -6.5410 O.2   401  LYS401     -0.2867
    129  CB        -2.4180  -28.3540   -5.4300 C.3   401  LYS401      0.0271
    130  CG        -1.3240  -27.4000   -4.9380 C.3   401  LYS401      0.0035
    131  CD         0.0660  -27.8600   -5.3400 C.3   401  LYS401      0.0206
    132  CE         1.0650  -26.7320   -5.0240 C.3   401  LYS401      0.1093
    133  NZ         2.4490  -27.2040   -5.2000 N.3   401  LYS401     -0.1314
@<TRIPOS>BOND
     1    28    27    2
     2    27    26    1
     3    26    25    1
     4    26    29    1
     5    84    85    1
     6    25    20   am
     7    29    30    1
     8    30    31    1
     9    87    86    2
    10    18    24    1
    11    18    19    1
    12    20    21    2
    13    20    19    1
    14    32    31   ar
    15    24    23    1
    16    85    86    1
    17    85    88    1
    18    31    33   ar
    19    86    92   am
    20    95    94    2
    21    19    22    1
    22    89    91    1
    23    89    88    1
    24    89    90    1
    25    94    93    1
    26    23    22    1
    27    82    81    1
    28    77    78    1
    29    92    93    1
    30    93    96    1
    31    83    81    1
    32    96    97    1
    33    34    35    1
    34    40    39    1
    35    81    78    1
    36    78    79    1
    37    79    80    2
    38    97    98    1
    39    41    39    1
    40    38    39    1
    41    38    35    1
    42    35    36    1
    43    37    36    2
    44    98    99    1
    45    36    42   am
    46    99   100    2
    47   100   101    1
    48   100   102    1
    49    14    16    1
    50    14    15    1
    51    14    11    1
    52    17    15    1
    53    13    12    2
    54    42    43    1
    55    10    11    1
    56    74    76   ar
    57    74    72   ar
    58     4     3    2
    59    11    12    1
    60    46    43    1
    61    76    75   ar
    62   103   104    1
    63    43    44    1
    64     9     8    1
    65    72    71    1
    66    72    73   ar
    67    71    68    1
    68   128   127    2
    69     7     8    1
    70     7     6    1
    71   104   105    1
    72     3     2    1
    73    75    73   ar
    74     5     6    1
    75     5     2    1
    76    70    69    2
    77   105   106    2
    78   105   107   am
    79   127   126    1
    80    44    45    2
    81    44    47   am
    82     2     1    1
    83    61    60    2
    84    69    68    1
    85   129   126    1
    86   129   130    1
    87   131   132    1
    88   131   130    1
    89    68    67    1
    90   107   108    1
    91   133   132    1
    92   126   125    1
    93   110   109    2
    94   113   112    1
    95   113   114    1
    96   112   109   am
    97   109   108    1
    98    47    48    1
    99   108   111    1
   100    60    59    1
   101    50    49    2
   102    56    55    1
   103    66    64   ar
   104    63    64    1
   105    63    62    1
   106   114   115    2
   107    48    49    1
   108    49    51   am
   109    59    62    1
   110    59    58    1
   111    64    65   ar
   112    55    57    1
   113    55    52    1
   114   124   122   ar
   115    51    52    1
   116    52    53    1
   117   119   118    2
   118   121   122    1
   119   121   120    1
   120   122   123   ar
   121   118   117    1
   122    53    54    2
   123   120   117    1
   124   117   116    1
