@<TRIPOS>MOLECULE
tmp/2fn4A00.pdb
 158 154 0 0 0
SMALL
GASTEIGER

@<TRIPOS>ATOM
      1  N         -5.9420   34.6120   19.3930 N.3    15  GLY15      -0.1210
      2  CA        -6.1150   33.2320   19.8120 C.3    15  GLY15       0.1956
      3  C         -6.8350   32.4620   18.7330 C.2    15  GLY15       0.2612
      4  O         -7.7020   33.0110   18.0410 O.2    15  GLY15      -0.2717
      5  N         -6.4760   31.1920   18.5990 N.am   16  GLY16      -0.1942
      6  CA        -7.1770   30.2790   17.7090 C.3    16  GLY16       0.2014
      7  C         -6.8310   30.3830   16.2370 C.2    16  GLY16       0.2639
      8  O         -7.4770   29.7570   15.4070 O.2    16  GLY16      -0.2714
      9  N         -5.8230   31.1830   15.9110 N.am   17  VAL17      -0.1963
     10  CA        -5.4120   31.3740   14.5030 C.3    17  VAL17       0.1727
     11  C         -4.5030   30.2780   14.0000 C.2    17  VAL17       0.2617
     12  O         -4.3960   30.0860   12.8060 O.2    17  VAL17      -0.2715
     13  CB        -4.7280   32.7300   14.2550 C.3    17  VAL17       0.0290
     14  CG1       -5.6610   33.8540   14.5540 C.3    17  VAL17       0.0023
     15  CG2       -3.3960   32.8740   15.0120 C.3    17  VAL17       0.0023
     16  N         -3.8300   29.5750   14.9070 N.am   18  GLY18      -0.1940
     17  CA        -2.8980   28.5190   14.5130 C.3    18  GLY18       0.2014
     18  C         -1.4300   28.7420   14.8470 C.2    18  GLY18       0.2639
     19  O         -0.5510   28.1270   14.2190 O.2    18  GLY18      -0.2714
     20  N         -1.1300   29.6510   15.7670 N.am   19  LYS19      -0.1963
     21  CA         0.2590   29.8690   16.1910 C.3    19  LYS19       0.1728
     22  C          0.9510   28.5980   16.6810 C.2    19  LYS19       0.2617
     23  O          2.0540   28.2860   16.2510 O.2    19  LYS19      -0.2715
     24  CB         0.4010   30.9770   17.2530 C.3    19  LYS19       0.0311
     25  CG        -0.2530   32.2900   16.8650 C.3    19  LYS19       0.0038
     26  CD        -0.1720   33.3910   17.8930 C.3    19  LYS19       0.0206
     27  CE        -0.9660   33.0790   19.1510 C.3    19  LYS19       0.1093
     28  NZ        -2.4060   32.7830   18.9380 N.3    19  LYS19      -0.1314
     29  N          0.3340   27.8580   17.6140 N.am   20  SER20      -0.1936
     30  CA         0.9440   26.6060   18.0810 C.3    20  SER20       0.2055
     31  C          1.0510   25.5420   16.9850 C.2    20  SER20       0.2642
     32  O          2.0610   24.8430   16.8710 O.2    20  SER20      -0.2714
     33  CB         0.1700   26.0370   19.2550 C.3    20  SER20       0.2130
     34  OG         0.1380   26.9720   20.2940 O.3    20  SER20      -0.2179
     35  N         -0.0250   25.3920   16.2220 N.am   21  ALA21      -0.1977
     36  CA        -0.0750   24.3990   15.1780 C.3    21  ALA21       0.1597
     37  C          1.0080   24.6960   14.1430 C.2    21  ALA21       0.2287
     38  O          1.6450   23.7780   13.6540 O.2    21  ALA21      -0.2864
     39  CB        -1.4680   24.3860   14.5280 C.3    21  ALA21       0.0319
     40  N          0.9250   17.6920   12.7890 N.3    31  PHE31      -0.1227
     41  CA        -0.1690   18.5900   13.1360 C.3    31  PHE31       0.1736
     42  C         -0.7450   18.2490   14.5030 C.2    31  PHE31       0.2595
     43  O         -1.2070   17.1180   14.7480 O.2    31  PHE31      -0.2718
     44  CB        -1.2680   18.5100   12.0810 C.3    31  PHE31       0.0547
     45  CG        -2.4280   19.4470   12.3180 C.ar   31  PHE31      -0.0202
     46  CD1       -2.2210   20.7950   12.5280 C.ar   31  PHE31      -0.0042
     47  CD2       -3.7310   18.9800   12.2590 C.ar   31  PHE31      -0.0042
     48  CE1       -3.2900   21.6670   12.7040 C.ar   31  PHE31      -0.0003
     49  CE2       -4.8200   19.8530   12.4510 C.ar   31  PHE31      -0.0003
     50  CZ        -4.6040   21.1790   12.6660 C.ar   31  PHE31      -0.0000
     51  N         -0.7120   19.2300   15.3940 N.am   32  VAL32      -0.1966
     52  CA        -1.4140   19.1180   16.6900 C.3    32  VAL32       0.1727
     53  C         -2.6560   20.0010   16.5990 C.2    32  VAL32       0.2617
     54  O         -2.5350   21.2150   16.4340 O.2    32  VAL32      -0.2715
     55  CB        -0.5100   19.5740   17.8410 C.3    32  VAL32       0.0290
     56  CG1       -1.2930   19.6100   19.1420 C.3    32  VAL32       0.0023
     57  CG2        0.7090   18.6540   17.9660 C.3    32  VAL32       0.0023
     58  N         -3.8430   19.3880   16.6800 N.am   33  SER33      -0.1936
     59  CA        -5.0970   20.0860   16.3740 C.3    33  SER33       0.2055
     60  C         -5.7210   20.7120   17.6130 C.2    33  SER33       0.2643
     61  O         -6.6710   21.4880   17.5020 O.2    33  SER33      -0.2714
     62  CB        -6.1010   19.1480   15.6930 C.3    33  SER33       0.2130
     63  OG        -6.6700   18.2350   16.6120 O.3    33  SER33      -0.2179
     64  N         -5.1720   20.3970   18.7850 N.am   34  ASP34      -0.1957
     65  CA        -5.7790   20.7960   20.0500 C.3    34  ASP34       0.1840
     66  C         -4.7220   21.1630   21.0870 C.2    34  ASP34       0.2622
     67  O         -4.7720   20.6890   22.2360 O.2    34  ASP34      -0.2715
     68  CB        -6.7180   19.6880   20.5550 C.3    34  ASP34       0.1450
     69  CG        -6.0420   18.3070   20.6740 C.2    34  ASP34       0.3671
     70  OD1       -4.8210   18.1810   20.4570 O.co2  34  ASP34      -0.2456
     71  OD2       -6.7600   17.3360   21.0020 O.co2  34  ASP34      -0.2456
     72  N         -3.7720   22.0170   20.6870 N.am   35  TYR35      -0.1974
     73  CA        -2.6960   22.4070   21.6040 C.3    35  TYR35       0.1639
     74  C         -3.2060   23.3460   22.6860 C.2    35  TYR35       0.2290
     75  O         -3.6730   24.4470   22.4020 O.2    35  TYR35      -0.2864
     76  CB        -1.4960   23.0480   20.9050 C.3    35  TYR35       0.0560
     77  CG        -0.2940   23.1600   21.8350 C.ar   35  TYR35      -0.0198
     78  CD1        0.4200   22.0270   22.2170 C.ar   35  TYR35      -0.0009
     79  CD2        0.1000   24.3840   22.3660 C.ar   35  TYR35      -0.0009
     80  CE1        1.5160   22.1150   23.0770 C.ar   35  TYR35       0.0417
     81  CE2        1.1920   24.4820   23.2200 C.ar   35  TYR35       0.0417
     82  CZ         1.8980   23.3450   23.5790 C.ar   35  TYR35       0.1957
     83  OH         2.9760   23.4200   24.4470 O.3    35  TYR35      -0.2866
     84  N         -4.2890   25.9210   24.6260 N.3    37  PRO37      -0.2116
     85  CA        -4.2250   27.3470   24.3020 C.3    37  PRO37       0.1372
     86  C         -3.5350   28.1870   25.3540 C.2    37  PRO37       0.2244
     87  O         -3.0940   29.2910   25.0360 O.2    37  PRO37      -0.2868
     88  CB        -5.6930   27.7700   24.1350 C.3    37  PRO37       0.0268
     89  CG        -6.5220   26.6520   24.5900 C.3    37  PRO37       0.0207
     90  CD        -5.6740   25.4200   24.7120 C.3    37  PRO37       0.0892
     91  N          6.2990   30.7320   20.9190 N.3    60  ASP60      -0.1225
     92  CA         4.8910   30.5960   20.5460 C.3    60  ASP60       0.1805
     93  C          4.0430   31.2390   21.6460 C.2    60  ASP60       0.2598
     94  O          3.8100   30.6310   22.6910 O.2    60  ASP60      -0.2718
     95  CB         4.5480   29.1120   20.4150 C.3    60  ASP60       0.1424
     96  CG         3.0650   28.8520   20.2490 C.2    60  ASP60       0.3668
     97  OD1        2.3510   29.7100   19.6720 O.co2  60  ASP60      -0.2456
     98  OD2        2.6270   27.7760   20.7070 O.co2  60  ASP60      -0.2456
     99  N          3.5680   32.4610   21.4030 N.am   61  THR61      -0.1953
    100  CA         2.8810   33.2360   22.4460 C.3    61  THR61       0.1897
    101  C          1.4540   32.7490   22.7130 C.2    61  THR61       0.2313
    102  O          0.7390   32.3410   21.8000 O.2    61  THR61      -0.2863
    103  CB         2.8630   34.7600   22.1270 C.3    61  THR61       0.1794
    104  OG1        2.1720   35.0110   20.8950 O.3    61  THR61      -0.2208
    105  CG2        4.2900   35.3130   22.0320 C.3    61  THR61       0.0378
    106  N         -3.1870   31.8670    7.9480 N.3   119  ASN119     -0.1225
    107  CA        -3.3230   30.4300    8.1330 C.3   119  ASN119      0.1785
    108  C         -4.7270   29.8860    7.7980 C.2   119  ASN119      0.2597
    109  O         -5.6850   30.6560    7.5970 O.2   119  ASN119     -0.2718
    110  CB        -2.9230   30.0820    9.5850 C.3   119  ASN119      0.1169
    111  CG        -2.7790   28.5910    9.8310 C.2   119  ASN119      0.2627
    112  OD1       -2.2400   27.8520    9.0060 O.2   119  ASN119     -0.2716
    113  ND2       -3.2580   28.1490   10.9960 N.am  119  ASN119     -0.0877
    114  N         -4.8300   28.5570    7.7560 N.am  120  LYS120     -0.1980
    115  CA        -6.0770   27.8250    7.4750 C.3   120  LYS120      0.1596
    116  C         -6.4690   27.9540    6.0060 C.2   120  LYS120      0.2287
    117  O         -7.6420   28.0630    5.6530 O.2   120  LYS120     -0.2864
    118  CB        -7.2060   28.2090    8.4220 C.3   120  LYS120      0.0298
    119  CG        -6.8020   28.2580    9.8750 C.3   120  LYS120      0.0038
    120  CD        -7.9670   28.2140   10.8180 C.3   120  LYS120      0.0206
    121  CE        -7.5280   28.3800   12.2430 C.3   120  LYS120      0.1093
    122  NZ        -8.5910   28.3340   13.2690 N.3   120  LYS120     -0.1314
    123  N         -6.5990   25.7120    3.9710 N.3   122  ASP122     -0.1225
    124  CA        -7.4240   24.5660    3.6330 C.3   122  ASP122      0.1805
    125  C         -8.9600   24.8290    3.7600 C.2   122  ASP122      0.2597
    126  O         -9.7740   23.9660    3.3940 O.2   122  ASP122     -0.2718
    127  CB        -7.0010   23.3850    4.5240 C.3   122  ASP122      0.1424
    128  CG        -7.1150   23.7120    5.9960 C.2   122  ASP122      0.3668
    129  OD1       -6.2470   24.4630    6.4810 O.co2 122  ASP122     -0.2456
    130  OD2       -8.0850   23.2600    6.6490 O.co2 122  ASP122     -0.2456
    131  N         -9.3250   26.0000    4.2930 N.am  123  LEU123     -0.1979
    132  CA       -10.7280   26.4040    4.5160 C.3   123  LEU123      0.1596
    133  C        -11.1150   27.5280    3.5440 C.2   123  LEU123      0.2287
    134  O        -11.7570   28.5170    3.9070 O.2   123  LEU123     -0.2864
    135  CB       -10.8740   26.9110    5.9500 C.3   123  LEU123      0.0297
    136  CG       -10.5190   25.9120    7.0570 C.3   123  LEU123      0.0022
    137  CD1      -10.8050   26.5640    8.4140 C.3   123  LEU123      0.0001
    138  CD2      -11.2770   24.5990    6.9020 C.3   123  LEU123      0.0001
    139  N         -1.2120   26.5260    5.6590 N.3   149  SER149     -0.1202
    140  CA        -2.0950   25.5990    6.3640 C.3   149  SER149      0.2020
    141  C         -1.2060   24.7810    7.2810 C.2   149  SER149      0.2619
    142  O         -0.4140   23.9600    6.8140 O.2   149  SER149     -0.2717
    143  CB        -2.8370   24.6610    5.3990 C.3   149  SER149      0.2103
    144  OG        -3.6230   23.6470    6.0720 O.3   149  SER149     -0.2182
    145  N         -1.3270   25.0000    8.5810 N.am  150  ALA150     -0.1965
    146  CA        -0.6450   24.1480    9.5280 C.3   150  ALA150      0.1728
    147  C         -1.2020   22.7110    9.4330 C.2   150  ALA150      0.2616
    148  O         -0.4650   21.7320    9.5620 O.2   150  ALA150     -0.2715
    149  CB        -0.7910   24.7110   10.9310 C.3   150  ALA150      0.0334
    150  N         -2.4980   22.5990    9.1550 N.am  151  LYS151     -0.1977
    151  CA        -3.1760   21.3070    9.0640 C.3   151  LYS151      0.1596
    152  C         -2.5560   20.4210    7.9760 C.2   151  LYS151      0.2287
    153  O         -2.3370   19.1940    8.1880 O.2   151  LYS151     -0.2864
    154  CB        -4.6910   21.5100    8.8200 C.3   151  LYS151      0.0298
    155  CG        -5.4170   20.2190    8.5150 C.3   151  LYS151      0.0038
    156  CD        -6.9160   20.3750    8.4610 C.3   151  LYS151      0.0206
    157  CE        -7.6080   19.0250    8.2640 C.3   151  LYS151      0.1093
    158  NZ        -9.0770   19.1680    8.3840 N.3   151  LYS151     -0.1314
@<TRIPOS>BOND
     1   126   125    2
     2   133   134    2
     3   133   132    1
     4   124   125    1
     5   124   123    1
     6   124   127    1
     7   125   131   am
     8   131   132    1
     9   132   135    1
    10   127   128    1
    11   143   144    1
    12   143   140    1
    13   117   116    2
    14   139   140    1
    15   135   136    1
    16   128   129   ar
    17   128   130   ar
    18   116   115    1
    19   140   141    1
    20   142   141    2
    21   138   136    1
    22   136   137    1
    23   141   145   am
    24   115   114    1
    25   115   118    1
    26   109   108    2
    27   114   108   am
    28   108   107    1
    29   106   107    1
    30   152   153    2
    31   152   151    1
    32   107   110    1
    33   157   158    1
    34   157   156    1
    35   118   119    1
    36   156   155    1
    37   155   154    1
    38   145   146    1
    39   154   151    1
    40   112   111    2
    41   151   150    1
    42   150   147   am
    43   147   146    1
    44   147   148    2
    45   146   149    1
    46   110   111    1
    47   111   113   am
    48   119   120    1
    49   120   121    1
    50    44    45    1
    51    44    41    1
    52   121   122    1
    53    47    45   ar
    54    47    49   ar
    55    45    46   ar
    56    49    50   ar
    57    46    48   ar
    58    50    48   ar
    59    40    41    1
    60    12    11    2
    61    41    42    1
    62    38    37    2
    63    11    10    1
    64    11    16   am
    65    37    36    1
    66    19    18    2
    67    13    10    1
    68    13    14    1
    69    13    15    1
    70    42    43    2
    71    42    51   am
    72    10     9    1
    73    17    18    1
    74    17    16    1
    75    39    36    1
    76    18    20   am
    77    36    35    1
    78    51    52    1
    79     8     7    2
    80    62    59    1
    81    62    63    1
    82    20    21    1
    83     9     7   am
    84    21    22    1
    85    21    24    1
    86    35    31   am
    87     7     6    1
    88    23    22    2
    89    59    58    1
    90    59    60    1
    91    54    53    2
    92    53    58   am
    93    53    52    1
    94    22    29   am
    95    52    55    1
    96    25    24    1
    97    25    26    1
    98    32    31    2
    99    31    30    1
   100    61    60    2
   101    60    64   am
   102    29    30    1
   103     6     5    1
   104    55    57    1
   105    55    56    1
   106    26    27    1
   107     4     3    2
   108    30    33    1
   109     5     3   am
   110     3     2    1
   111    64    65    1
   112    28    27    1
   113    33    34    1
   114     1     2    1
   115    97    96   ar
   116    65    68    1
   117    65    66    1
   118    96    95    1
   119    96    98   ar
   120    95    92    1
   121    70    69   ar
   122    92    91    1
   123    92    93    1
   124    68    69    1
   125    69    71   ar
   126    72    66   am
   127    72    73    1
   128   104   103    1
   129    76    73    1
   130    76    77    1
   131    66    67    2
   132    99    93   am
   133    99   100    1
   134    73    74    1
   135    93    94    2
   136   102   101    2
   137    77    78   ar
   138    77    79   ar
   139   105   103    1
   140   103   100    1
   141    78    80   ar
   142    79    81   ar
   143    75    74    2
   144   100   101    1
   145    80    82   ar
   146    81    82   ar
   147    82    83    1
   148    88    85    1
   149    88    89    1
   150    85    84    1
   151    85    86    1
   152    89    90    1
   153    84    90    1
   154    87    86    2
