@<TRIPOS>MOLECULE
tmp/2fn8A00.pdb
 106 102 0 0 0
SMALL
GASTEIGER

@<TRIPOS>ATOM
      1  N          5.1710  -22.1400   27.8950 N.3    13  ASN13      -0.1240
      2  CA         6.0830  -21.0190   27.7420 C.3    13  ASN13       0.1653
      3  C          5.4210  -19.8730   28.4940 C.2    13  ASN13       0.2266
      4  O          4.3670  -19.3880   28.0720 O.2    13  ASN13      -0.2867
      5  CB         6.2580  -20.6210   26.2720 C.3    13  ASN13       0.1155
      6  CG         7.3980  -19.6220   26.0460 C.2    13  ASN13       0.2627
      7  OD1        7.7140  -18.7850   26.9040 O.2    13  ASN13      -0.2716
      8  ND2        8.0250  -19.7190   24.8770 N.am   13  ASN13      -0.0877
      9  N          5.9230  -16.7990   28.5500 N.3    15  TRP15      -0.1227
     10  CA         5.7300  -15.6570   27.6830 C.3    15  TRP15       0.1737
     11  C          4.4590  -15.7900   26.8320 C.2    15  TRP15       0.2595
     12  O          3.7270  -14.8210   26.6340 O.2    15  TRP15      -0.2718
     13  CB         6.9630  -15.4950   26.7960 C.3    15  TRP15       0.0564
     14  CG         7.0540  -14.1660   26.1370 C.ar   15  TRP15       0.0003
     15  CD1        7.6410  -13.0520   26.6420 C.ar   15  TRP15       0.0946
     16  CD2        6.5700  -13.8180   24.8350 C.ar   15  TRP15       0.0152
     17  NE1        7.5510  -12.0240   25.7420 N.ar   15  TRP15      -0.2442
     18  CE2        6.8840  -12.4580   24.6300 C.ar   15  TRP15       0.0810
     19  CE3        5.8920  -14.5230   23.8240 C.ar   15  TRP15       0.0012
     20  CZ2        6.5550  -11.7810   23.4510 C.ar   15  TRP15       0.0191
     21  CZ3        5.5460  -13.8570   22.6720 C.ar   15  TRP15       0.0001
     22  CH2        5.8850  -12.4920   22.4870 C.ar   15  TRP15       0.0015
     23  N          4.1870  -16.9860   26.3240 N.am   16  PHE16      -0.1976
     24  CA         2.9760  -17.1820   25.5520 C.3    16  PHE16       0.1639
     25  C          1.7030  -17.1600   26.4170 C.2    16  PHE16       0.2290
     26  O          0.6320  -16.8070   25.9290 O.2    16  PHE16      -0.2864
     27  CB         3.0720  -18.4350   24.6910 C.3    16  PHE16       0.0560
     28  CG         3.8400  -18.2470   23.4310 C.ar   16  PHE16      -0.0200
     29  CD1        3.4950  -17.2580   22.5270 C.ar   16  PHE16      -0.0042
     30  CD2        4.9000  -19.0620   23.1260 C.ar   16  PHE16      -0.0042
     31  CE1        4.1990  -17.1060   21.3530 C.ar   16  PHE16      -0.0003
     32  CE2        5.5970  -18.9080   21.9460 C.ar   16  PHE16      -0.0003
     33  CZ         5.2420  -17.9320   21.0550 C.ar   16  PHE16      -0.0000
     34  N          2.9940  -12.1200   17.0100 N.3    89  ASP89      -0.1225
     35  CA         4.3130  -12.6150   17.4200 C.3    89  ASP89       0.1805
     36  C          5.1240  -13.4020   16.3790 C.2    89  ASP89       0.2597
     37  O          6.3430  -13.2590   16.3190 O.2    89  ASP89      -0.2718
     38  CB         4.2360  -13.4300   18.7070 C.3    89  ASP89       0.1424
     39  CG         5.5670  -14.0770   19.0550 C.2    89  ASP89       0.3668
     40  OD1        6.4810  -13.3350   19.5110 O.co2  89  ASP89      -0.2456
     41  OD2        5.6810  -15.3150   18.8610 O.co2  89  ASP89      -0.2456
     42  N          4.4620  -14.2410   15.6020 N.am   90  ARG90      -0.1979
     43  CA         5.0950  -14.8850   14.4550 C.3    90  ARG90       0.1597
     44  C          4.2820  -14.6110   13.1960 C.2    90  ARG90       0.2287
     45  O          3.0570  -14.5030   13.2290 O.2    90  ARG90      -0.2864
     46  CB         5.1880  -16.3960   14.6650 C.3    90  ARG90       0.0334
     47  CG         6.1080  -16.8230   15.7810 C.3    90  ARG90       0.0492
     48  CD         5.8910  -18.2750   16.1090 C.3    90  ARG90       0.2205
     49  NE         6.7390  -18.7150   17.2090 N.pl3  90  ARG90      -0.0865
     50  CZ         6.7290  -19.9390   17.7060 C.cat  90  ARG90       0.5346
     51  NH1        5.9550  -20.8680   17.1650 N.pl3  90  ARG90       0.1354
     52  NH2        7.5200  -20.2460   18.7240 N.pl3  90  ARG90       0.1354
     53  N         11.0280  -15.7740   13.9640 N.3   144  PRO144     -0.2116
     54  CA        11.9140  -15.1280   14.9430 C.3   144  PRO144      0.1372
     55  C         13.2400  -15.8620   15.2010 C.2   144  PRO144      0.2244
     56  O         14.2560  -15.2270   15.5080 O.2   144  PRO144     -0.2868
     57  CB        11.0680  -15.1200   16.2160 C.3   144  PRO144      0.0268
     58  CG         9.6990  -15.1270   15.7570 C.3   144  PRO144      0.0207
     59  CD         9.6870  -15.9920   14.5370 C.3   144  PRO144      0.0892
     60  N         16.5400  -13.4650   14.7790 N.3   148  ARG148     -0.1245
     61  CA        17.3900  -13.2050   15.9440 C.3   148  ARG148      0.1563
     62  C         18.7980  -13.7610   15.7740 C.2   148  ARG148      0.2260
     63  O         19.7920  -13.0950   16.1120 O.2   148  ARG148     -0.2867
     64  CB        16.7600  -13.8190   17.2030 C.3   148  ARG148      0.0307
     65  CG        15.4490  -13.2030   17.5950 C.3   148  ARG148      0.0489
     66  CD        14.7030  -14.0420   18.6060 C.3   148  ARG148      0.2205
     67  NE        13.3620  -13.4910   18.7870 N.pl3 148  ARG148     -0.0865
     68  CZ        12.3840  -14.0440   19.5020 C.cat 148  ARG148      0.5346
     69  NH1       12.5630  -15.1850   20.1410 N.pl3 148  ARG148      0.1354
     70  NH2       11.2020  -13.4390   19.5760 N.pl3 148  ARG148      0.1354
     71  N         12.8400  -23.5350   21.8940 N.3   172  PHE172     -0.1241
     72  CA        12.2960  -22.4710   22.7190 C.3   172  PHE172      0.1605
     73  C         11.8390  -23.0070   24.0860 C.2   172  PHE172      0.2264
     74  O         10.9490  -22.4450   24.7140 O.2   172  PHE172     -0.2867
     75  CB        11.1250  -21.7520   21.9910 C.3   172  PHE172      0.0534
     76  CG        11.5390  -20.7370   20.9260 C.ar  172  PHE172     -0.0203
     77  CD1       12.6320  -19.8950   21.0980 C.ar  172  PHE172     -0.0042
     78  CD2       10.7410  -20.5630   19.7890 C.ar  172  PHE172     -0.0042
     79  CE1       12.9550  -18.9360   20.1520 C.ar  172  PHE172     -0.0003
     80  CE2       11.0570  -19.6110   18.8210 C.ar  172  PHE172     -0.0003
     81  CZ        12.1650  -18.7850   19.0020 C.ar  172  PHE172     -0.0000
     82  N         15.5740  -17.5610   23.0990 N.3   198  ASN198     -0.1240
     83  CA        14.5530  -17.0800   24.0190 C.3   198  ASN198      0.1653
     84  C         14.9540  -17.2900   25.4720 C.2   198  ASN198      0.2266
     85  O         15.9550  -17.9530   25.7730 O.2   198  ASN198     -0.2867
     86  CB        13.1380  -17.6470   23.6970 C.3   198  ASN198      0.1155
     87  CG        12.8740  -19.0520   24.2910 C.2   198  ASN198      0.2627
     88  OD1       13.8050  -19.8060   24.6000 O.2   198  ASN198     -0.2716
     89  ND2       11.5920  -19.4060   24.4190 N.am  198  ASN198     -0.0877
     90  N         13.3960  -12.1430   25.4890 N.3   223  ASP223     -0.1239
     91  CA        11.9460  -12.0360   25.6770 C.3   223  ASP223      0.1674
     92  C         11.5870  -10.9770   26.7120 C.2   223  ASP223      0.2266
     93  O         10.6290  -10.2440   26.5210 O.2   223  ASP223     -0.2867
     94  CB        11.2950  -13.3310   26.1630 C.3   223  ASP223      0.1410
     95  CG        10.9710  -14.3040   25.0550 C.2   223  ASP223      0.3668
     96  OD1       10.9180  -13.9230   23.8550 O.co2 223  ASP223     -0.2456
     97  OD2       10.7490  -15.4720   25.4330 O.co2 223  ASP223     -0.2456
     98  N         10.5970   -7.8390   24.7410 N.3   244  GLN244     -0.1245
     99  CA         9.4870   -7.7260   23.8160 C.3   244  GLN244      0.1566
    100  C          8.2750   -7.1880   24.5560 C.2   244  GLN244      0.2260
    101  O          8.2560   -7.1420   25.7820 O.2   244  GLN244     -0.2867
    102  CB         9.1210   -9.0770   23.2120 C.3   244  GLN244      0.0367
    103  CG        10.1820   -9.7470   22.3670 C.3   244  GLN244      0.0905
    104  CD         9.5760  -10.9060   21.5740 C.2   244  GLN244      0.2608
    105  OE1        8.9690  -10.7080   20.5140 O.2   244  GLN244     -0.2717
    106  NE2        9.7120  -12.1170   22.1010 N.am  244  GLN244     -0.0878
@<TRIPOS>BOND
     1    44    45    2
     2    44    43    1
     3    53    59    1
     4    53    54    1
     5    43    46    1
     6    43    42    1
     7    59    58    1
     8    46    47    1
     9    60    61    1
    10    54    55    1
    11    54    57    1
    12    55    56    2
    13    42    36   am
    14    58    57    1
    15    62    61    1
    16    62    63    2
    17    47    48    1
    18    61    64    1
    19    48    49    1
    20    37    36    2
    21    36    35    1
    22    34    35    1
    23    51    50    1
    24    64    65    1
    25    49    50    2
    26    35    38    1
    27    65    66    1
    28    50    52    1
    29    66    67    1
    30    38    39    1
    31    67    68    2
    32    80    81   ar
    33    80    78   ar
    34    41    39   ar
    35    81    79   ar
    36    39    40   ar
    37    68    70    1
    38    68    69    1
    39    78    76   ar
    40    79    77   ar
    41   105   104    2
    42    76    77   ar
    43    76    75    1
    44    33    31   ar
    45    33    32   ar
    46    31    29   ar
    47   104   106   am
    48   104   103    1
    49    71    72    1
    50    32    30   ar
    51    75    72    1
    52   103   102    1
    53    22    21   ar
    54    22    20   ar
    55    29    28   ar
    56    21    19   ar
    57    72    73    1
    58    82    83    1
    59    30    28   ar
    60   102    99    1
    61    28    27    1
    62    20    18   ar
    63    86    83    1
    64    86    87    1
    65    99   100    1
    66    99    98    1
    67    19    16   ar
    68    96    95   ar
    69    83    84    1
    70    73    74    2
    71    87    89   am
    72    87    88    2
    73   100   101    2
    74    18    16   ar
    75    18    17   ar
    76    27    24    1
    77    16    14   ar
    78     8     6   am
    79    95    97   ar
    80    95    94    1
    81    84    85    2
    82    90    91    1
    83    24    23    1
    84    24    25    1
    85    91    94    1
    86    91    92    1
    87    17    15   ar
    88    26    25    2
    89     6     5    1
    90     6     7    2
    91    14    15   ar
    92    14    13    1
    93     5     2    1
    94    23    11   am
    95    93    92    2
    96    12    11    2
    97    13    10    1
    98    11    10    1
    99    10     9    1
   100     2     1    1
   101     2     3    1
   102     4     3    2
