@<TRIPOS>MOLECULE
tmp/2fnaA00.pdb
 214 208 0 0 0
SMALL
GASTEIGER

@<TRIPOS>ATOM
      1  N         19.4430   55.2890   55.4900 N.3     2  LEU2       -0.1245
      2  CA        18.8600   54.4410   54.4790 C.3     2  LEU2        0.1561
      3  C         18.0020   53.2940   55.0520 C.2     2  LEU2        0.2260
      4  O         17.0260   52.8780   54.4520 O.2     2  LEU2       -0.2867
      5  CB        19.9600   53.8580   53.6140 C.3     2  LEU2        0.0270
      6  CG        19.5200   53.2380   52.2960 C.3     2  LEU2        0.0019
      7  CD1       19.1040   54.3800   51.3390 C.3     2  LEU2        0.0001
      8  CD2       20.6470   52.4030   51.6750 C.3     2  LEU2        0.0001
      9  N         16.2370   53.2770   58.0230 N.3     4  ASP4       -0.1225
     10  CA        15.1250   53.5890   58.9250 C.3     4  ASP4        0.1805
     11  C         13.8750   52.7280   58.5790 C.2     4  ASP4        0.2598
     12  O         13.4430   52.6360   57.4170 O.2     4  ASP4       -0.2718
     13  CB        14.7390   55.0780   58.8650 C.3     4  ASP4        0.1424
     14  CG        15.7900   55.9890   59.4560 C.2     4  ASP4        0.3668
     15  OD1       16.6360   55.5370   60.2660 O.co2   4  ASP4       -0.2456
     16  OD2       15.7500   57.1870   59.1270 O.co2   4  ASP4       -0.2456
     17  N         13.3480   52.0610   59.5880 N.am    5  THR5       -0.1939
     18  CA        12.1930   51.2070   59.4490 C.3     5  THR5        0.2028
     19  C         10.9240   52.0350   59.7230 C.2     5  THR5        0.2643
     20  O         10.3100   51.9470   60.8270 O.2     5  THR5       -0.2714
     21  CB        12.2390   50.0150   60.4650 C.3     5  THR5        0.1808
     22  OG1       12.2420   50.5430   61.7910 O.3     5  THR5       -0.2208
     23  CG2       13.4790   49.1340   60.2130 C.3     5  THR5        0.0379
     24  N         10.6230   52.8830   58.7600 N.am    6  SER6       -0.1936
     25  CA         9.3680   53.6210   58.6170 C.3     6  SER6        0.2040
     26  C          9.4270   54.1950   57.1780 C.2     6  SER6        0.2485
     27  O         10.5090   54.2060   56.5440 O.2     6  SER6       -0.2729
     28  CB         9.1630   54.7010   59.7010 C.3     6  SER6        0.2129
     29  OG        10.1760   55.7020   59.6860 O.3     6  SER6       -0.2179
     30  N          8.2740   54.5830   56.6090 N.am    7  PRO7       -0.2715
     31  CA         8.3560   55.1930   55.2950 C.3     7  PRO7        0.1536
     32  C          9.2570   56.4400   55.2600 C.2     7  PRO7        0.2598
     33  O          9.1990   57.2770   56.1480 O.2     7  PRO7       -0.2715
     34  CB         6.8830   55.5240   54.9970 C.3     7  PRO7        0.0310
     35  CG         6.1430   54.4320   55.7270 C.3     7  PRO7        0.0237
     36  CD         6.8670   54.4520   57.0440 C.3     7  PRO7        0.0939
     37  N         10.0910   56.5460   54.2270 N.am    8  LYS8       -0.1978
     38  CA        11.0360   57.6500   54.1260 C.3     8  LYS8        0.1596
     39  C         10.2560   58.8680   53.7060 C.2     8  LYS8        0.2287
     40  O          9.2500   58.7370   53.0110 O.2     8  LYS8       -0.2864
     41  CB        12.1420   57.3610   53.1010 C.3     8  LYS8        0.0298
     42  CG        12.9680   56.0850   53.3820 C.3     8  LYS8        0.0038
     43  CD        13.5870   56.0560   54.7840 C.3     8  LYS8        0.0206
     44  CE        14.7760   55.0700   54.8350 C.3     8  LYS8        0.1093
     45  NZ        14.4110   53.5860   54.7160 N.3     8  LYS8       -0.1314
     46  N         17.4380   59.8980   52.0990 N.3    13  ASP13      -0.1225
     47  CA        17.3330   58.6360   52.8270 C.3    13  ASP13       0.1805
     48  C         16.8090   57.4820   51.9560 C.2    13  ASP13       0.2598
     49  O         16.5100   56.4190   52.4700 O.2    13  ASP13      -0.2718
     50  CB        16.3760   58.8060   54.0060 C.3    13  ASP13       0.1424
     51  CG        16.8060   59.9030   54.9910 C.2    13  ASP13       0.3668
     52  OD1       18.0180   60.1550   55.1550 O.co2  13  ASP13      -0.2456
     53  OD2       15.9150   60.5020   55.6360 O.co2  13  ASP13      -0.2456
     54  N         16.7230   57.6720   50.6410 N.am   14  PHE14      -0.1962
     55  CA        15.9780   56.7770   49.8100 C.3    14  PHE14       0.1771
     56  C         16.8020   56.3580   48.6100 C.2    14  PHE14       0.2619
     57  O         17.3050   57.1910   47.8880 O.2    14  PHE14      -0.2715
     58  CB        14.6870   57.5040   49.3990 C.3    14  PHE14       0.0574
     59  CG        13.6320   56.6260   48.8380 C.ar   14  PHE14      -0.0200
     60  CD1       12.8230   55.8630   49.6870 C.ar   14  PHE14      -0.0042
     61  CD2       13.3950   56.5840   47.4640 C.ar   14  PHE14      -0.0042
     62  CE1       11.8330   55.0700   49.1740 C.ar   14  PHE14      -0.0003
     63  CE2       12.4140   55.7860   46.9540 C.ar   14  PHE14      -0.0003
     64  CZ        11.6080   55.0200   47.8250 C.ar   14  PHE14      -0.0000
     65  N         16.9400   55.0520   48.4000 N.am   15  PHE15      -0.1974
     66  CA        17.7100   54.5030   47.2550 C.3    15  PHE15       0.1639
     67  C         16.9760   54.5890   45.9090 C.2    15  PHE15       0.2290
     68  O         15.9300   53.9660   45.7370 O.2    15  PHE15      -0.2864
     69  CB        18.0210   53.0430   47.5220 C.3    15  PHE15       0.0560
     70  CG        18.7450   52.3620   46.4140 C.ar   15  PHE15      -0.0200
     71  CD1       20.0150   52.7790   46.0430 C.ar   15  PHE15      -0.0042
     72  CD2       18.1950   51.2590   45.7720 C.ar   15  PHE15      -0.0042
     73  CE1       20.6940   52.1310   45.0370 C.ar   15  PHE15      -0.0003
     74  CE2       18.8830   50.6000   44.7700 C.ar   15  PHE15      -0.0003
     75  CZ        20.1220   51.0290   44.4030 C.ar   15  PHE15      -0.0000
     76  N         14.9030   54.8670   42.6790 N.3    17  ARG17      -0.1245
     77  CA        13.5670   55.1590   42.1420 C.3    17  ARG17       0.1563
     78  C         13.3980   56.5880   41.6080 C.2    17  ARG17       0.2260
     79  O         12.3240   57.1660   41.7280 O.2    17  ARG17      -0.2867
     80  CB        12.4640   54.8870   43.1770 C.3    17  ARG17       0.0307
     81  CG        12.5870   53.6160   43.9140 C.3    17  ARG17       0.0489
     82  CD        12.4000   52.3580   43.0610 C.3    17  ARG17       0.2205
     83  NE        11.9290   51.3090   43.9410 N.pl3  17  ARG17      -0.0865
     84  CZ        11.8780   50.0200   43.6380 C.cat  17  ARG17       0.5346
     85  NH1       12.2830   49.5930   42.4480 N.pl3  17  ARG17       0.1354
     86  NH2       11.3850   49.1720   44.5440 N.pl3  17  ARG17       0.1354
     87  N          2.9650   45.4030   48.7120 N.3    38  ARG38      -0.1231
     88  CA         3.3450   45.8930   49.9940 C.3    38  ARG38       0.1694
     89  C          4.8520   45.9610   50.1420 C.2    38  ARG38       0.2592
     90  O          5.5870   45.0970   49.6730 O.2    38  ARG38      -0.2718
     91  CB         2.7800   45.0410   51.1110 C.3    38  ARG38       0.0321
     92  CG         1.4120   45.3910   51.4880 C.3    38  ARG38       0.0489
     93  CD         0.9800   44.6020   52.7030 C.3    38  ARG38       0.2205
     94  NE        -0.3570   44.1100   52.4860 N.pl3  38  ARG38      -0.0865
     95  CZ        -1.4480   44.8560   52.5200 C.cat  38  ARG38       0.5346
     96  NH1       -1.3800   46.1590   52.7980 N.pl3  38  ARG38       0.1354
     97  NH2       -2.6220   44.2860   52.2760 N.pl3  38  ARG38       0.1354
     98  N          5.2880   47.0280   50.7950 N.am   39  ARG39      -0.1966
     99  CA         6.6890   47.2310   51.1910 C.3    39  ARG39       0.1729
    100  C          7.6350   47.5020   50.0540 C.2    39  ARG39       0.2617
    101  O          8.8480   47.2960   50.1940 O.2    39  ARG39      -0.2715
    102  CB         7.1700   46.0550   52.0440 C.3    39  ARG39       0.0348
    103  CG         6.5830   46.0890   53.4030 C.3    39  ARG39       0.0492
    104  CD         6.8750   44.7960   54.1220 C.3    39  ARG39       0.2205
    105  NE         6.0620   43.6740   53.6490 N.pl3  39  ARG39      -0.0865
    106  CZ         4.7990   43.4630   53.9940 C.cat  39  ARG39       0.5346
    107  NH1        4.1600   44.2960   54.8130 N.pl3  39  ARG39       0.1354
    108  NH2        4.1700   42.3900   53.5470 N.pl3  39  ARG39       0.1354
    109  N          7.1020   48.0440   48.9570 N.am   40  THR40      -0.1937
    110  CA         7.9180   48.3990   47.7920 C.3    40  THR40       0.2028
    111  C          8.2900   49.9000   47.7460 C.2    40  THR40       0.2643
    112  O          9.0510   50.3170   46.8890 O.2    40  THR40      -0.2714
    113  CB         7.2850   47.9370   46.4450 C.3    40  THR40       0.1808
    114  OG1        5.9330   48.3730   46.3690 O.3    40  THR40      -0.2208
    115  CG2        7.3330   46.3950   46.2990 C.3    40  THR40       0.0379
    116  N          7.7700   50.6880   48.6790 N.am   41  GLY41      -0.1939
    117  CA         8.1410   52.0860   48.8240 C.3    41  GLY41       0.2014
    118  C          7.0960   53.0740   48.3690 C.2    41  GLY41       0.2639
    119  O          7.4190   54.2560   48.1650 O.2    41  GLY41      -0.2714
    120  N          5.8460   52.6200   48.2170 N.am   42  LYS42      -0.1963
    121  CA         4.7960   53.4870   47.6650 C.3    42  LYS42       0.1728
    122  C          4.5730   54.6810   48.5910 C.2    42  LYS42       0.2617
    123  O          4.6430   55.8130   48.1500 O.2    42  LYS42      -0.2715
    124  CB         3.4810   52.7380   47.4170 C.3    42  LYS42       0.0311
    125  CG         3.5450   51.5890   46.4140 C.3    42  LYS42       0.0038
    126  CD         2.1880   50.9320   46.2320 C.3    42  LYS42       0.0206
    127  CE         1.6480   50.2600   47.5130 C.3    42  LYS42       0.1093
    128  NZ         2.5200   49.1660   47.9850 N.3    42  LYS42      -0.1314
    129  N          4.3250   54.4380   49.8780 N.am   43  SER43      -0.1936
    130  CA         4.0730   55.5550   50.7980 C.3    43  SER43       0.2055
    131  C          5.2980   56.4810   50.8640 C.2    43  SER43       0.2643
    132  O          5.1530   57.7060   50.9260 O.2    43  SER43      -0.2714
    133  CB         3.6460   55.0760   52.2000 C.3    43  SER43       0.2130
    134  OG         2.4340   54.3240   52.1770 O.3    43  SER43      -0.2179
    135  N          6.4990   55.9000   50.8150 N.am   44  SER44      -0.1949
    136  CA         7.7550   56.6710   50.7690 C.3    44  SER44       0.1924
    137  C          7.8580   57.6620   49.5930 C.2    44  SER44       0.2314
    138  O          8.1800   58.8700   49.7880 O.2    44  SER44      -0.2863
    139  CB         8.9800   55.7240   50.7850 C.3    44  SER44       0.2116
    140  OG         9.0400   54.8870   51.9540 O.3    44  SER44      -0.2180
    141  N         -4.6420   52.6900   55.4190 N.3    63  ARG63      -0.1245
    142  CA        -4.1130   51.4930   56.0500 C.3    63  ARG63       0.1563
    143  C         -4.6760   51.3180   57.4450 C.2    63  ARG63       0.2260
    144  O         -4.7710   50.2050   57.9240 O.2    63  ARG63      -0.2867
    145  CB        -2.5800   51.5660   56.2050 C.3    63  ARG63       0.0307
    146  CG        -1.8880   51.1790   54.9500 C.3    63  ARG63       0.0489
    147  CD        -0.4700   50.6530   55.1020 C.3    63  ARG63       0.2205
    148  NE         0.3650   51.5960   55.8230 N.pl3  63  ARG63      -0.0865
    149  CZ         0.8410   52.7640   55.4070 C.cat  63  ARG63       0.5346
    150  NH1        0.6210   53.3340   54.2240 N.pl3  63  ARG63       0.1354
    151  NH2        1.5960   53.4380   56.3160 N.pl3  63  ARG63       0.1354
    152  N         -3.9160   56.9830   50.2740 N.3   137  ASP137     -0.1225
    153  CA        -2.8790   55.9870   50.3860 C.3   137  ASP137      0.1805
    154  C         -3.5310   54.6740   50.8260 C.2   137  ASP137      0.2597
    155  O         -4.0290   54.5470   51.9410 O.2   137  ASP137     -0.2718
    156  CB        -1.8050   56.4720   51.3540 C.3   137  ASP137      0.1424
    157  CG        -0.5040   55.6530   51.3020 C.2   137  ASP137      0.3668
    158  OD1       -0.3810   54.7050   50.4990 O.co2 137  ASP137     -0.2456
    159  OD2        0.4140   55.9760   52.1120 O.co2 137  ASP137     -0.2456
    160  N         -3.4900   53.7170   49.9130 N.am  138  GLU138     -0.1979
    161  CA        -4.2490   52.4530   49.9600 C.3   138  GLU138      0.1602
    162  C         -5.7450   52.6750   49.6670 C.2   138  GLU138      0.2287
    163  O         -6.6130   52.2620   50.4240 O.2   138  GLU138     -0.2864
    164  CB        -4.0100   51.6720   51.2600 C.3   138  GLU138      0.0415
    165  CG        -2.5290   51.2400   51.4760 C.3   138  GLU138      0.1163
    166  CD        -2.0220   50.2100   50.4970 C.2   138  GLU138      0.3649
    167  OE1       -2.8210   49.4500   49.8930 O.co2 138  GLU138     -0.2457
    168  OE2       -0.7870   50.1470   50.3040 O.co2 138  GLU138     -0.2457
    169  N         -1.6100   48.5260   47.2730 N.3   170  SER170     -0.1217
    170  CA        -0.7940   47.3300   47.3530 C.3   170  SER170      0.1889
    171  C         -1.4670   46.1320   46.7130 C.2   170  SER170      0.2288
    172  O         -0.8190   45.1260   46.5080 O.2   170  SER170     -0.2866
    173  CB        -0.4610   46.9960   48.8130 C.3   170  SER170      0.2089
    174  OG         0.4080   47.9940   49.3480 O.3   170  SER170     -0.2183
    175  N         13.1950   45.0120   44.2580 N.3   200  PHE200     -0.1241
    176  CA        14.5480   45.0640   43.7170 C.3   200  PHE200      0.1605
    177  C         14.9440   43.7750   42.9980 C.2   200  PHE200      0.2264
    178  O         14.6560   42.6590   43.4670 O.2   200  PHE200     -0.2867
    179  CB        15.5590   45.3540   44.8250 C.3   200  PHE200      0.0534
    180  CG        15.3890   46.7070   45.5000 C.ar  200  PHE200     -0.0203
    181  CD1       15.0440   47.8280   44.7890 C.ar  200  PHE200     -0.0042
    182  CD2       15.6610   46.8520   46.8460 C.ar  200  PHE200     -0.0042
    183  CE1       14.9060   49.0670   45.4320 C.ar  200  PHE200     -0.0003
    184  CE2       15.5520   48.0940   47.4860 C.ar  200  PHE200     -0.0003
    185  CZ        15.1930   49.2000   46.7680 C.ar  200  PHE200     -0.0000
    186  N         21.5330   48.4690   47.0270 N.3   208  PHE208     -0.1241
    187  CA        20.8080   49.1260   48.1350 C.3   208  PHE208      0.1605
    188  C         21.5260   48.9000   49.4650 C.2   208  PHE208      0.2264
    189  O         21.7620   49.8260   50.2510 O.2   208  PHE208     -0.2867
    190  CB        19.3710   48.5630   48.1930 C.3   208  PHE208      0.0534
    191  CG        18.5890   48.9690   49.4040 C.ar  208  PHE208     -0.0203
    192  CD1       18.1880   50.2820   49.5610 C.ar  208  PHE208     -0.0042
    193  CD2       18.2400   48.0410   50.3810 C.ar  208  PHE208     -0.0042
    194  CE1       17.4690   50.6860   50.6530 C.ar  208  PHE208     -0.0003
    195  CE2       17.5130   48.4290   51.4770 C.ar  208  PHE208     -0.0003
    196  CZ        17.1220   49.7720   51.6340 C.ar  208  PHE208     -0.0000
    197  N         11.8650   45.7640   49.1070 N.3   234  PRO234     -0.2102
    198  CA        12.6710   46.7700   49.8070 C.3   234  PRO234      0.1504
    199  C         12.4920   46.8300   51.3170 C.2   234  PRO234      0.2576
    200  O         13.4780   47.0230   52.0430 O.2   234  PRO234     -0.2718
    201  CB        12.2440   48.0950   49.1480 C.3   234  PRO234      0.0282
    202  CG        11.8600   47.7070   47.7710 C.3   234  PRO234      0.0208
    203  CD        11.1600   46.3410   47.9530 C.3   234  PRO234      0.0893
    204  N         11.2510   46.7170   51.7710 N.am  235  GLY235     -0.1957
    205  CA        10.9270   46.7730   53.1890 C.3   235  GLY235      0.1869
    206  C         11.6420   45.7190   54.0040 C.2   235  GLY235      0.2309
    207  O         12.0720   45.9890   55.1360 O.2   235  GLY235     -0.2863
    208  N         15.4510   46.5730   54.0590 N.3   238  THR238     -0.1218
    209  CA        15.6000   47.7010   54.9830 C.3   238  THR238      0.1862
    210  C         15.6760   47.2580   56.4480 C.2   238  THR238      0.2287
    211  O         16.5360   47.7240   57.1740 O.2   238  THR238     -0.2866
    212  CB        14.4140   48.6850   54.8240 C.3   238  THR238      0.1770
    213  OG1       14.3440   49.1450   53.4780 O.3   238  THR238     -0.2211
    214  CG2       14.5220   49.9360   55.7440 C.3   238  THR238      0.0375
@<TRIPOS>BOND
     1    78    79    2
     2    78    77    1
     3    77    76    1
     4    77    80    1
     5    85    84    1
     6   177   178    2
     7   177   176    1
     8    82    81    1
     9    82    83    1
    10    80    81    1
    11    84    83    2
    12    84    86    1
    13   176   175    1
    14   176   179    1
    15    75    74   ar
    16    75    73   ar
    17    74    72   ar
    18   181   183   ar
    19   181   180   ar
    20   179   180    1
    21    73    71   ar
    22   183   185   ar
    23   180   182   ar
    24    68    67    2
    25    72    70   ar
    26    67    66    1
    27    71    70   ar
    28   126   125    1
    29   126   127    1
    30   115   113    1
    31   114   113    1
    32   125   124    1
    33    70    69    1
    34   113   110    1
    35   172   171    2
    36   171   170    1
    37   185   184   ar
    38   182   184   ar
    39   112   111    2
    40    63    61   ar
    41    63    64   ar
    42   186   187    1
    43    66    69    1
    44    66    65    1
    45   169   170    1
    46   170   173    1
    47   124   121    1
    48    61    59   ar
    49   127   128    1
    50   121   120    1
    51   121   122    1
    52   111   110    1
    53   111   116   am
    54   202   203    1
    55   202   201    1
    56   110   109    1
    57    64    62   ar
    58    57    56    2
    59   203   197    1
    60   187   190    1
    61   187   188    1
    62   123   122    2
    63   119   118    2
    64   190   191    1
    65   120   118   am
    66   118   117    1
    67    65    56   am
    68   122   129   am
    69    56    55    1
    70   116   117    1
    71    87    88    1
    72   173   174    1
    73    59    58    1
    74    59    60   ar
    75   109   100   am
    76   197   198    1
    77   201   198    1
    78    62    60   ar
    79    58    55    1
    80   191   192   ar
    81   191   193   ar
    82   188   189    2
    83   192   194   ar
    84   137   138    2
    85   137   136    1
    86   162   161    1
    87   162   163    2
    88    90    89    2
    89   198   199    1
    90    55    54    1
    91   129   130    1
    92   167   166   ar
    93   160   161    1
    94   160   154   am
    95   161   164    1
    96    88    89    1
    97    88    91    1
    98   100   101    2
    99   100    99    1
   100    89    98   am
   101   152   153    1
   102   168   166   ar
   103   193   195   ar
   104   153   154    1
   105   153   156    1
   106   166   165    1
   107   158   157   ar
   108    54    48   am
   109   194   196   ar
   110   136   139    1
   111   136   135    1
   112   139   140    1
   113    98    99    1
   114   130   131    1
   115   130   133    1
   116   135   131   am
   117   154   155    2
   118   131   132    2
   119    91    92    1
   120    99   102    1
   121   164   165    1
   122   157   156    1
   123   157   159   ar
   124   199   204   am
   125   199   200    2
   126     7     6    1
   127   195   196   ar
   128    92    93    1
   129     8     6    1
   130   204   205    1
   131    48    49    2
   132    48    47    1
   133   102   103    1
   134    46    47    1
   135   134   133    1
   136    97    95    1
   137     6     5    1
   138    94    95    2
   139    94    93    1
   140    95    96    1
   141    47    50    1
   142    40    39    2
   143    41    42    1
   144    41    38    1
   145   205   206    1
   146    42    43    1
   147   103   104    1
   148   213   212    1
   149   108   106    1
   150     5     2    1
   151   105   106    2
   152   105   104    1
   153    39    38    1
   154   106   107    1
   155   206   207    2
   156    50    51    1
   157   208   209    1
   158    38    37    1
   159   150   149    1
   160    37    32   am
   161     4     3    2
   162     2     3    1
   163     2     1    1
   164    45    44    1
   165    43    44    1
   166   212   209    1
   167   212   214    1
   168   146   147    1
   169   146   145    1
   170   209   210    1
   171    51    52   ar
   172    51    53   ar
   173    34    31    1
   174    34    35    1
   175   147   148    1
   176    32    31    1
   177    32    33    2
   178    31    30    1
   179   149   148    2
   180   149   151    1
   181   141   142    1
   182    35    36    1
   183   142   145    1
   184   142   143    1
   185   210   211    2
   186    27    26    2
   187    30    36    1
   188    30    26   am
   189    26    25    1
   190    12    11    2
   191   143   144    2
   192     9    10    1
   193    11    10    1
   194    11    17   am
   195    25    24    1
   196    25    28    1
   197    24    19   am
   198    13    10    1
   199    13    14    1
   200    16    14   ar
   201    18    17    1
   202    18    19    1
   203    18    21    1
   204    14    15   ar
   205    29    28    1
   206    19    20    2
   207    23    21    1
   208    21    22    1
