@<TRIPOS>MOLECULE
tmp/2fnuB02.pdb
 148 149 0 0 0
SMALL
GASTEIGER

@<TRIPOS>ATOM
      1  N         25.9480   57.1270   14.8470 N.3     5  ALA5       -0.1231
      2  CA        25.2990   55.9130   14.3650 C.3     5  ALA5        0.1694
      3  C         23.8970   56.2840   13.9080 C.2     5  ALA5        0.2592
      4  O         23.3160   57.2560   14.4160 O.2     5  ALA5       -0.2718
      5  CB        25.2100   54.8910   15.4980 C.3     5  ALA5        0.0304
      6  N         23.3440   55.5260   12.9670 N.am    6  TYR6       -0.1962
      7  CA        22.0310   55.9020   12.4370 C.3     6  TYR6        0.1771
      8  C         20.9170   55.6820   13.4410 C.2     6  TYR6        0.2620
      9  O         19.8810   56.3330   13.3820 O.2     6  TYR6       -0.2715
     10  CB        21.7380   55.2380   11.0870 C.3     6  TYR6        0.0574
     11  CG        21.2270   53.8070   11.1180 C.ar    6  TYR6       -0.0198
     12  CD1       19.8660   53.5410   11.2750 C.ar    6  TYR6       -0.0009
     13  CD2       22.0970   52.7270   10.9590 C.ar    6  TYR6       -0.0009
     14  CE1       19.3750   52.2480   11.2770 C.ar    6  TYR6        0.0417
     15  CE2       21.6120   51.4120   10.9590 C.ar    6  TYR6        0.0417
     16  CZ        20.2520   51.1760   11.1190 C.ar    6  TYR6        0.1957
     17  OH        19.7410   49.8920   11.1190 O.3     6  TYR6       -0.2866
     18  N         21.1280   54.7400   14.3500 N.am    7  SER7       -0.1936
     19  CA        20.2430   54.5790   15.5070 C.3     7  SER7        0.2055
     20  C         21.0630   54.0160   16.6440 C.2     7  SER7        0.2643
     21  O         22.1120   53.4060   16.4150 O.2     7  SER7       -0.2714
     22  CB        19.0510   53.6600   15.2060 C.3     7  SER7        0.2130
     23  OG        18.1420   53.6500   16.3020 O.3     7  SER7       -0.2179
     24  N         20.6050   54.2450   17.8660 N.am    8  GLU8       -0.1963
     25  CA        21.2260   53.6270   19.0370 C.3     8  GLU8        0.1718
     26  C         20.2180   53.4490   20.1640 C.2     8  GLU8        0.2458
     27  O         19.1490   54.0750   20.1540 O.2     8  GLU8       -0.2730
     28  CB        22.4230   54.4400   19.5150 C.3     8  GLU8        0.0428
     29  CG        22.0990   55.8210   19.8830 C.3     8  GLU8        0.1163
     30  CD        23.3410   56.6900   20.1000 C.2     8  GLU8        0.3649
     31  OE1       23.3100   57.4420   21.0640 O.co2   8  GLU8       -0.2457
     32  OE2       24.3140   56.6410   19.3240 O.co2   8  GLU8       -0.2457
     33  N         20.5470   52.5930   21.1500 N.am    9  PRO9       -0.2727
     34  CA        19.6330   52.4320   22.2660 C.3     9  PRO9        0.1402
     35  C         19.6430   53.6810   23.1410 C.2     9  PRO9        0.2269
     36  O         20.6620   54.3720   23.2210 O.2     9  PRO9       -0.2865
     37  CB        20.2280   51.2390   23.0350 C.3     9  PRO9        0.0296
     38  CG        21.7070   51.2800   22.7220 C.3     9  PRO9        0.0237
     39  CD        21.7630   51.7580   21.2860 C.3     9  PRO9        0.0939
     40  N         14.0720   43.7960    5.8200 N.3    84  PHE84      -0.1241
     41  CA        15.2420   43.0300    6.2470 C.3    84  PHE84       0.1605
     42  C         15.0650   41.5680    5.8440 C.2    84  PHE84       0.2264
     43  O         13.9460   41.0730    5.7970 O.2    84  PHE84      -0.2867
     44  CB        15.4640   43.1450    7.7530 C.3    84  PHE84       0.0534
     45  CG        16.7480   42.5150    8.2110 C.ar   84  PHE84      -0.0203
     46  CD1       17.9640   43.0010    7.7580 C.ar   84  PHE84      -0.0042
     47  CD2       16.7310   41.3940    9.0260 C.ar   84  PHE84      -0.0042
     48  CE1       19.1690   42.3980    8.1480 C.ar   84  PHE84      -0.0003
     49  CE2       17.9300   40.7800    9.4320 C.ar   84  PHE84      -0.0003
     50  CZ        19.1430   41.2830    8.9810 C.ar   84  PHE84      -0.0000
     51  N          9.4420   47.6670   12.7970 N.3   157  HIS157     -0.1241
     52  CA         9.8500   49.0720   12.9250 C.3   157  HIS157      0.1621
     53  C          8.8370   49.9490   13.6390 C.2   157  HIS157      0.2264
     54  O          9.1270   51.1280   13.8980 O.2   157  HIS157     -0.2867
     55  CB        10.0200   49.7190   11.5350 C.3   157  HIS157      0.0745
     56  CG        11.1070   49.1170   10.7030 C.ar  157  HIS157      0.0817
     57  ND1       11.5200   49.6840    9.5180 N.ar  157  HIS157     -0.2268
     58  CD2       11.8520   47.9970   10.8680 C.ar  157  HIS157      0.1154
     59  CE1       12.4810   48.9430    8.9890 C.ar  157  HIS157      0.1986
     60  NE2       12.7030   47.9120    9.7870 N.ar  157  HIS157     -0.2212
     61  N         15.0720   44.9120   19.2310 N.3   180  HIS180     -0.1226
     62  CA        16.5130   44.9840   19.0150 C.3   180  HIS180      0.1752
     63  C         17.0430   46.3240   19.5320 C.2   180  HIS180      0.2596
     64  O         16.3070   47.3230   19.5740 O.2   180  HIS180     -0.2718
     65  CB        16.8100   44.8730   17.5230 C.3   180  HIS180      0.0759
     66  CG        18.2710   44.9020   17.1790 C.ar  180  HIS180      0.0818
     67  ND1       18.9550   46.0760   16.9150 N.ar  180  HIS180     -0.2268
     68  CD2       19.1770   43.9010   17.0600 C.ar  180  HIS180      0.1154
     69  CE1       20.2190   45.7890   16.6420 C.ar  180  HIS180      0.1986
     70  NE2       20.3740   44.4750   16.7040 N.ar  180  HIS180     -0.2212
     71  N         18.3230   46.3360   19.9050 N.am  181  ALA181     -0.1966
     72  CA        19.0140   47.5200   20.4410 C.3   181  ALA181      0.1728
     73  C         18.6480   48.8440   19.7760 C.2   181  ALA181      0.2616
     74  O         18.5630   49.8690   20.4480 O.2   181  ALA181     -0.2715
     75  CB        20.5160   47.3060   20.3340 C.3   181  ALA181      0.0334
     76  N         18.4620   48.8400   18.4590 N.am  182  ILE182     -0.1963
     77  CA        18.2930   50.1090   17.7430 C.3   182  ILE182      0.1727
     78  C         16.8390   50.4250   17.4210 C.2   182  ILE182      0.2616
     79  O         16.5570   51.4010   16.7060 O.2   182  ILE182     -0.2715
     80  CB        19.1670   50.1840   16.4690 C.3   182  ILE182      0.0290
     81  CG1       18.7020   49.1420   15.4470 C.3   182  ILE182      0.0022
     82  CG2       20.6400   50.0200   16.8720 C.3   182  ILE182      0.0023
     83  CD1       19.4310   49.1960   14.0870 C.3   182  ILE182      0.0001
     84  N         15.9170   49.6180   17.9540 N.am  183  LYS183     -0.1977
     85  CA        14.4990   49.7660   17.6090 C.3   183  LYS183      0.1596
     86  C         13.7690   50.7890   18.4920 C.2   183  LYS183      0.2287
     87  O         14.3640   51.3400   19.4290 O.2   183  LYS183     -0.2864
     88  CB        13.8120   48.4070   17.6410 C.3   183  LYS183      0.0298
     89  CG        14.2470   47.4760   16.4940 C.3   183  LYS183      0.0038
     90  CD        13.6890   47.9070   15.1520 C.3   183  LYS183      0.0206
     91  CE        13.9970   46.8540   14.0780 C.3   183  LYS183      0.1093
     92  NZ        14.4110   47.4700   12.8080 N.3   183  LYS183     -0.1314
     93  N         11.2300   55.0820   13.3040 N.3   284  HIS284     -0.1241
     94  CA        12.4070   54.2300   13.4650 C.3   284  HIS284      0.1621
     95  C         13.5510   54.6760   12.5600 C.2   284  HIS284      0.2264
     96  O         14.7260   54.6990   13.0000 O.2   284  HIS284     -0.2867
     97  CB        12.0750   52.7460   13.2380 C.3   284  HIS284      0.0745
     98  CG        13.2850   51.8830   13.2050 C.ar  284  HIS284      0.0817
     99  ND1       14.2370   51.9050   14.2070 N.ar  284  HIS284     -0.2268
    100  CD2       13.7300   51.0040   12.2800 C.ar  284  HIS284      0.1154
    101  CE1       15.2190   51.0750   13.8940 C.ar  284  HIS284      0.1986
    102  NE2       14.9370   50.5180   12.7290 N.ar  284  HIS284     -0.2212
    103  N         27.0270   58.2170   10.0310 N.3   311  LEU311     -0.1245
    104  CA        27.1340   56.7850    9.7100 C.3   311  LEU311      0.1561
    105  C         25.8320   56.2590    9.1280 C.2   311  LEU311      0.2260
    106  O         25.1920   55.3400    9.6670 O.2   311  LEU311     -0.2867
    107  CB        27.6130   55.9760   10.9160 C.3   311  LEU311      0.0270
    108  CG        28.8760   56.5350   11.5980 C.3   311  LEU311      0.0019
    109  CD1       29.2730   55.6590   12.8130 C.3   311  LEU311      0.0001
    110  CD2       30.0450   56.6810   10.6220 C.3   311  LEU311      0.0001
    111  N         23.0050   54.5720    6.6350 N.3   313  GLN313     -0.1231
    112  CA        22.8510   53.1870    6.2040 C.3   313  GLN313      0.1698
    113  C         21.7860   53.1400    5.1080 C.2   313  GLN313      0.2592
    114  O         21.0420   54.1010    4.9310 O.2   313  GLN313     -0.2718
    115  CB        22.4600   52.3380    7.4270 C.3   313  GLN313      0.0381
    116  CG        22.2730   50.8490    7.1900 C.3   313  GLN313      0.0905
    117  CD        23.4800   50.2090    6.5460 C.2   313  GLN313      0.2608
    118  OE1       23.7300   50.3850    5.3520 O.2   313  GLN313     -0.2717
    119  NE2       24.2340   49.4460    7.3370 N.am  313  GLN313     -0.0878
    120  N         21.7200   52.0360    4.3640 N.am  314  VAL314     -0.1966
    121  CA        20.7060   51.8690    3.3380 C.3   314  VAL314      0.1727
    122  C         19.7660   50.7320    3.7430 C.2   314  VAL314      0.2616
    123  O         20.2290   49.6380    4.1210 O.2   314  VAL314     -0.2715
    124  CB        21.3370   51.5480    1.9710 C.3   314  VAL314      0.0290
    125  CG1       20.2490   51.2770    0.8990 C.3   314  VAL314      0.0023
    126  CG2       22.2590   52.6960    1.5200 C.3   314  VAL314      0.0023
    127  N         18.4590   51.0040    3.6750 N.am  315  HIS315     -0.1959
    128  CA        17.4200   49.9920    3.9340 C.3   315  HIS315      0.1787
    129  C         16.4710   49.9600    2.7240 C.2   315  HIS315      0.2620
    130  O         15.7200   50.9090    2.5370 O.2   315  HIS315     -0.2715
    131  CB        16.6430   50.4060    5.2010 C.3   315  HIS315      0.0785
    132  CG        17.5040   50.5430    6.4210 C.ar  315  HIS315      0.0821
    133  ND1       18.0570   51.7450    6.8250 N.ar  315  HIS315     -0.2267
    134  CD2       17.8870   49.6280    7.3410 C.ar  315  HIS315      0.1154
    135  CE1       18.7560   51.5550    7.9280 C.ar  315  HIS315      0.1986
    136  NE2       18.6620   50.2820    8.2700 N.ar  315  HIS315     -0.2212
    137  N         16.4640   48.9210    1.8780 N.am  316  TYR316     -0.1974
    138  CA        17.1970   47.6620    1.9850 C.3   316  TYR316      0.1639
    139  C         17.5360   47.1790    0.5800 C.2   316  TYR316      0.2290
    140  O         16.8280   47.4990   -0.3850 O.2   316  TYR316     -0.2864
    141  CB        16.2990   46.5680    2.5850 C.3   316  TYR316      0.0560
    142  CG        15.9170   46.7570    4.0220 C.ar  316  TYR316     -0.0198
    143  CD1       14.6820   47.3080    4.3620 C.ar  316  TYR316     -0.0009
    144  CD2       16.7870   46.3770    5.0500 C.ar  316  TYR316     -0.0009
    145  CE1       14.3190   47.4690    5.6980 C.ar  316  TYR316      0.0417
    146  CE2       16.4370   46.5410    6.4050 C.ar  316  TYR316      0.0417
    147  CZ        15.2070   47.1020    6.7030 C.ar  316  TYR316      0.1957
    148  OH        14.8640   47.2600    8.0230 O.3   316  TYR316     -0.2866
@<TRIPOS>BOND
     1   140   139    2
     2   139   138    1
     3   125   124    1
     4   126   124    1
     5   137   138    1
     6   137   129   am
     7   124   121    1
     8   138   141    1
     9   130   129    2
    10   141   142    1
    11   129   128    1
    12   121   122    1
    13   121   120    1
    14   127   122   am
    15   127   128    1
    16   122   123    2
    17   128   131    1
    18   142   143   ar
    19   142   144   ar
    20   143   145   ar
    21   120   113   am
    22   114   113    2
    23   144   146   ar
    24   113   112    1
    25   131   132    1
    26   118   117    2
    27   145   147   ar
    28    43    42    2
    29    40    41    1
    30    42    41    1
    31   112   111    1
    32   112   115    1
    33    41    44    1
    34   146   147   ar
    35   132   133   ar
    36   132   134   ar
    37   117   116    1
    38   117   119   am
    39   147   148    1
    40   133   135   ar
    41   116   115    1
    42   134   136   ar
    43    44    45    1
    44    46    48   ar
    45    46    45   ar
    46   135   136   ar
    47    48    50   ar
    48    45    47   ar
    49    50    49   ar
    50    59    57   ar
    51    59    60   ar
    52    47    49   ar
    53   105   106    2
    54   105   104    1
    55    57    56   ar
    56   104   103    1
    57   104   107    1
    58    60    58   ar
    59   110   108    1
    60    56    58   ar
    61    56    55    1
    62   107   108    1
    63    13    15   ar
    64    13    11   ar
    65    15    16   ar
    66    10    11    1
    67    10     7    1
    68    11    12   ar
    69    16    17    1
    70    16    14   ar
    71    12    14   ar
    72    55    52    1
    73   108   109    1
    74   100   102   ar
    75   100    98   ar
    76     7     6    1
    77     7     8    1
    78    95    96    2
    79    95    94    1
    80   102   101   ar
    81    51    52    1
    82    92    91    1
    83    52    53    1
    84     6     3   am
    85    98    97    1
    86    98    99   ar
    87    97    94    1
    88    93    94    1
    89     9     8    2
    90     8    18   am
    91    53    54    2
    92   101    99   ar
    93     3     2    1
    94     3     4    2
    95    91    90    1
    96    83    81    1
    97    18    19    1
    98     2     1    1
    99     2     5    1
   100    90    89    1
   101    22    19    1
   102    22    23    1
   103    81    80    1
   104    19    20    1
   105    21    20    2
   106    80    82    1
   107    80    77    1
   108    89    88    1
   109    69    70   ar
   110    69    67   ar
   111    20    24   am
   112    70    68   ar
   113    79    78    2
   114    67    66   ar
   115    68    66   ar
   116    66    65    1
   117    78    77    1
   118    78    84   am
   119    65    62    1
   120    85    88    1
   121    85    84    1
   122    85    86    1
   123    77    76    1
   124    24    25    1
   125    76    73   am
   126    86    87    2
   127    62    61    1
   128    62    63    1
   129    25    28    1
   130    25    26    1
   131    32    30   ar
   132    28    29    1
   133    63    64    2
   134    63    71   am
   135    73    72    1
   136    73    74    2
   137    29    30    1
   138    71    72    1
   139    30    31   ar
   140    27    26    2
   141    26    33   am
   142    75    72    1
   143    33    39    1
   144    33    34    1
   145    39    38    1
   146    34    37    1
   147    34    35    1
   148    38    37    1
   149    35    36    2
