@<TRIPOS>MOLECULE
tmp/2fnuB01.pdb
 144 136 0 0 0
SMALL
GASTEIGER

@<TRIPOS>ATOM
      1  N         13.9690   37.3410   19.9520 N.3    55  SER55      -0.1202
      2  CA        14.2030   38.2320   18.8110 C.3    55  SER55       0.2020
      3  C         12.9220   38.2960   17.9700 C.2    55  SER55       0.2619
      4  O         12.0750   37.3940   18.0640 O.2    55  SER55      -0.2717
      5  CB        15.3460   37.7340   17.9240 C.3    55  SER55       0.2103
      6  OG        14.9860   36.5080   17.2950 O.3    55  SER55      -0.2182
      7  N         12.7950   39.3220   17.1090 N.am   56  ALA56      -0.1965
      8  CA        11.6520   39.3200   16.1860 C.3    56  ALA56       0.1728
      9  C         11.7530   38.2110   15.1390 C.2    56  ALA56       0.2616
     10  O         10.7340   37.7780   14.6040 O.2    56  ALA56      -0.2715
     11  CB        11.4570   40.6820   15.5060 C.3    56  ALA56       0.0334
     12  N         12.9820   37.7860   14.8190 N.am   57  THR57      -0.1951
     13  CA        13.1460   36.6930   13.8520 C.3    57  THR57       0.1897
     14  C         12.5510   35.3950   14.4280 C.2    57  THR57       0.2313
     15  O         11.8810   34.6420   13.7110 O.2    57  THR57      -0.2863
     16  CB        14.6160   36.5250   13.4720 C.3    57  THR57       0.1794
     17  OG1       15.0880   37.7710   12.9770 O.3    57  THR57      -0.2208
     18  CG2       14.7810   35.4990   12.3700 C.3    57  THR57       0.0378
     19  N          8.8400   35.8210   14.1570 N.3    60  LEU60      -0.1245
     20  CA         8.3680   35.5980   12.7890 C.3    60  LEU60       0.1561
     21  C          8.2750   34.1030   12.4870 C.2    60  LEU60       0.2260
     22  O          7.2760   33.6410   11.9180 O.2    60  LEU60      -0.2867
     23  CB         9.2970   36.2830   11.7630 C.3    60  LEU60       0.0270
     24  CG         9.1690   37.7960   11.6130 C.3    60  LEU60       0.0019
     25  CD1       10.3700   38.3700   10.8690 C.3    60  LEU60       0.0001
     26  CD2        7.8900   38.1700   10.8930 C.3    60  LEU60       0.0001
     27  N         12.5800   44.7870    2.6890 N.3    83  SER83      -0.1202
     28  CA        12.5310   44.5080    4.1230 C.3    83  SER83       0.2020
     29  C         13.8540   43.9350    4.5160 C.2    83  SER83       0.2618
     30  O         14.6810   43.6200    3.6420 O.2    83  SER83      -0.2717
     31  CB        11.4430   43.4930    4.4770 C.3    83  SER83       0.2103
     32  OG        11.3240   43.4590    5.8950 O.3    83  SER83      -0.2182
     33  N         14.0720   43.7960    5.8200 N.am   84  PHE84      -0.1975
     34  CA        15.2420   43.0300    6.2470 C.3    84  PHE84       0.1639
     35  C         15.0650   41.5680    5.8440 C.2    84  PHE84       0.2290
     36  O         13.9460   41.0730    5.7970 O.2    84  PHE84      -0.2864
     37  CB        15.4640   43.1450    7.7530 C.3    84  PHE84       0.0560
     38  CG        16.7480   42.5150    8.2110 C.ar   84  PHE84      -0.0200
     39  CD1       17.9640   43.0010    7.7580 C.ar   84  PHE84      -0.0042
     40  CD2       16.7310   41.3940    9.0260 C.ar   84  PHE84      -0.0042
     41  CE1       19.1690   42.3980    8.1480 C.ar   84  PHE84      -0.0003
     42  CE2       17.9300   40.7800    9.4320 C.ar   84  PHE84      -0.0003
     43  CZ        19.1430   41.2830    8.9810 C.ar   84  PHE84      -0.0000
     44  N         15.2580   38.7770    7.1740 N.3    86  ALA86      -0.1231
     45  CA        14.5510   37.8680    8.0870 C.3    86  ALA86       0.1694
     46  C         13.0900   37.6570    7.7100 C.2    86  ALA86       0.2592
     47  O         12.5530   36.5750    7.9240 O.2    86  ALA86      -0.2718
     48  CB        14.6360   38.3790    9.5320 C.3    86  ALA86       0.0304
     49  N         12.4300   38.6980    7.1850 N.am   87  THR87      -0.1953
     50  CA        11.0060   38.5890    6.8680 C.3    87  THR87       0.1897
     51  C         10.7710   37.4450    5.8920 C.2    87  THR87       0.2313
     52  O          9.7870   36.6980    6.0030 O.2    87  THR87      -0.2863
     53  CB        10.5020   39.9040    6.2620 C.3    87  THR87       0.1794
     54  OG1       10.8520   40.9990    7.1240 O.3    87  THR87      -0.2208
     55  CG2        8.9720   39.8760    6.1130 C.3    87  THR87       0.0378
     56  N          5.1900   44.9130    5.4920 N.3   128  VAL128     -0.1245
     57  CA         6.1590   45.5050    6.4160 C.3   128  VAL128      0.1561
     58  C          5.8820   47.0060    6.5170 C.2   128  VAL128      0.2260
     59  O          5.7200   47.6870    5.4910 O.2   128  VAL128     -0.2867
     60  CB         7.5900   45.3210    5.8710 C.3   128  VAL128      0.0252
     61  CG1        8.6240   46.0960    6.7160 C.3   128  VAL128      0.0019
     62  CG2        7.9260   43.8330    5.8390 C.3   128  VAL128      0.0019
     63  N          4.6740   42.2910    9.4770 N.3   154  ASP154     -0.1239
     64  CA         5.9820   42.5170   10.0910 C.3   154  ASP154      0.1674
     65  C          6.0860   44.0020   10.4450 C.2   154  ASP154      0.2266
     66  O          6.5020   44.8420    9.6290 O.2   154  ASP154     -0.2867
     67  CB         7.1290   42.0610    9.1720 C.3   154  ASP154      0.1410
     68  CG         8.4800   42.2250    9.8380 C.2   154  ASP154      0.3668
     69  OD1        9.4810   41.7410    9.2830 O.co2 154  ASP154     -0.2456
     70  OD2        8.5200   42.8340   10.9450 O.co2 154  ASP154     -0.2456
     71  N          7.9740   45.2660   12.6850 N.3   156  SER156     -0.1202
     72  CA         9.1780   45.3400   13.5180 C.3   156  SER156      0.2020
     73  C          9.6330   46.7670   13.7810 C.2   156  SER156      0.2618
     74  O         10.1830   47.0410   14.8620 O.2   156  SER156     -0.2717
     75  CB        10.3260   44.5490   12.8870 C.3   156  SER156      0.2103
     76  OG        10.1260   43.1530   13.0480 O.3   156  SER156     -0.2182
     77  N          9.4420   47.6670   12.7970 N.am  157  HIS157     -0.1975
     78  CA         9.8500   49.0720   12.9250 C.3   157  HIS157      0.1656
     79  C          8.8370   49.9490   13.6390 C.2   157  HIS157      0.2291
     80  O          9.1270   51.1280   13.8980 O.2   157  HIS157     -0.2864
     81  CB        10.0200   49.7190   11.5350 C.3   157  HIS157      0.0771
     82  CG        11.1070   49.1170   10.7030 C.ar  157  HIS157      0.0820
     83  ND1       11.5200   49.6840    9.5180 N.ar  157  HIS157     -0.2267
     84  CD2       11.8520   47.9970   10.8680 C.ar  157  HIS157      0.1154
     85  CE1       12.4810   48.9430    8.9890 C.ar  157  HIS157      0.1986
     86  NE2       12.7030   47.9120    9.7870 N.ar  157  HIS157     -0.2212
     87  N          9.9090   44.2800   16.9000 N.3   178  SER178     -0.1217
     88  CA        11.2640   43.9790   17.3490 C.3   178  SER178      0.1889
     89  C         11.6730   44.9530   18.4390 C.2   178  SER178      0.2288
     90  O         11.3520   46.1380   18.3750 O.2   178  SER178     -0.2866
     91  CB        12.2580   44.1160   16.1800 C.3   178  SER178      0.2089
     92  OG        13.6100   43.9400   16.6180 O.3   178  SER178     -0.2183
     93  N         15.0720   44.9120   19.2310 N.3   180  HIS180     -0.1241
     94  CA        16.5130   44.9840   19.0150 C.3   180  HIS180      0.1621
     95  C         17.0430   46.3240   19.5320 C.2   180  HIS180      0.2264
     96  O         16.3070   47.3230   19.5740 O.2   180  HIS180     -0.2867
     97  CB        16.8100   44.8730   17.5230 C.3   180  HIS180      0.0745
     98  CG        18.2710   44.9020   17.1790 C.ar  180  HIS180      0.0817
     99  ND1       18.9550   46.0760   16.9150 N.ar  180  HIS180     -0.2268
    100  CD2       19.1770   43.9010   17.0600 C.ar  180  HIS180      0.1154
    101  CE1       20.2190   45.7890   16.6420 C.ar  180  HIS180      0.1986
    102  NE2       20.3740   44.4750   16.7040 N.ar  180  HIS180     -0.2212
    103  N         18.4620   48.8400   18.4590 N.3   182  ILE182     -0.1231
    104  CA        18.2930   50.1090   17.7430 C.3   182  ILE182      0.1692
    105  C         16.8390   50.4250   17.4210 C.2   182  ILE182      0.2591
    106  O         16.5570   51.4010   16.7060 O.2   182  ILE182     -0.2718
    107  CB        19.1670   50.1840   16.4690 C.3   182  ILE182      0.0266
    108  CG1       18.7020   49.1420   15.4470 C.3   182  ILE182      0.0019
    109  CG2       20.6400   50.0200   16.8720 C.3   182  ILE182      0.0020
    110  CD1       19.4310   49.1960   14.0870 C.3   182  ILE182      0.0001
    111  N         15.9170   49.6180   17.9540 N.am  183  LYS183     -0.1980
    112  CA        14.4990   49.7660   17.6090 C.3   183  LYS183      0.1596
    113  C         13.7690   50.7890   18.4920 C.2   183  LYS183      0.2287
    114  O         14.3640   51.3400   19.4290 O.2   183  LYS183     -0.2864
    115  CB        13.8120   48.4070   17.6410 C.3   183  LYS183      0.0298
    116  CG        14.2470   47.4760   16.4940 C.3   183  LYS183      0.0038
    117  CD        13.6890   47.9070   15.1520 C.3   183  LYS183      0.0206
    118  CE        13.9970   46.8540   14.0780 C.3   183  LYS183      0.1093
    119  NZ        14.4110   47.4700   12.8080 N.3   183  LYS183     -0.1314
    120  N         18.1050   42.4120   22.7000 N.3   189  GLU189     -0.1231
    121  CA        17.5120   41.6180   21.6110 C.3   189  GLU189      0.1699
    122  C         16.1320   41.2680   22.1220 C.2   189  GLU189      0.2592
    123  O         15.9370   41.0140   23.3110 O.2   189  GLU189     -0.2718
    124  CB        18.2800   40.3190   21.3410 C.3   189  GLU189      0.0402
    125  CG        19.7220   40.5070   20.8240 C.3   189  GLU189      0.1161
    126  CD        19.8150   40.6890   19.3130 C.2   189  GLU189      0.3649
    127  OE1       18.7610   40.7640   18.6090 O.co2 189  GLU189     -0.2457
    128  OE2       20.9650   40.8090   18.8310 O.co2 189  GLU189     -0.2457
    129  N         15.1670   41.2550   21.2330 N.am  190  GLY190     -0.1957
    130  CA        13.8340   40.8030   21.6140 C.3   190  GLY190      0.1869
    131  C         12.8280   41.0020   20.5100 C.2   190  GLY190      0.2309
    132  O         13.0820   41.7270   19.5440 O.2   190  GLY190     -0.2863
    133  N         16.4640   48.9210    1.8780 N.3   316  TYR316     -0.1241
    134  CA        17.1970   47.6620    1.9850 C.3   316  TYR316      0.1605
    135  C         17.5360   47.1790    0.5800 C.2   316  TYR316      0.2264
    136  O         16.8280   47.4990   -0.3850 O.2   316  TYR316     -0.2867
    137  CB        16.2990   46.5680    2.5850 C.3   316  TYR316      0.0534
    138  CG        15.9170   46.7570    4.0220 C.ar  316  TYR316     -0.0201
    139  CD1       14.6820   47.3080    4.3620 C.ar  316  TYR316     -0.0009
    140  CD2       16.7870   46.3770    5.0500 C.ar  316  TYR316     -0.0009
    141  CE1       14.3190   47.4690    5.6980 C.ar  316  TYR316      0.0417
    142  CE2       16.4370   46.5410    6.4050 C.ar  316  TYR316      0.0417
    143  CZ        15.2070   47.1020    6.7030 C.ar  316  TYR316      0.1957
    144  OH        14.8640   47.2600    8.0230 O.3   316  TYR316     -0.2866
@<TRIPOS>BOND
     1   136   135    2
     2   135   134    1
     3   133   134    1
     4   134   137    1
     5   137   138    1
     6    27    28    1
     7    30    29    2
     8   138   139   ar
     9   138   140   ar
    10    28    31    1
    11    28    29    1
    12   139   141   ar
    13    31    32    1
    14    29    33   am
    15   140   142   ar
    16    59    58    2
    17    56    57    1
    18   141   143   ar
    19    36    35    2
    20    33    34    1
    21    62    60    1
    22    35    34    1
    23    60    57    1
    24    60    61    1
    25    51    52    2
    26    51    50    1
    27    55    53    1
    28    34    37    1
    29    53    50    1
    30    53    54    1
    31   142   143   ar
    32    57    58    1
    33   143   144    1
    34    50    49    1
    35    44    45    1
    36    49    46   am
    37    46    47    2
    38    46    45    1
    39    37    38    1
    40    39    41   ar
    41    39    38   ar
    42    45    48    1
    43    41    43   ar
    44    38    40   ar
    45    43    42   ar
    46    85    83   ar
    47    85    86   ar
    48    40    42   ar
    49    67    68    1
    50    67    64    1
    51    69    68   ar
    52    63    64    1
    53    83    82   ar
    54    66    65    2
    55    86    84   ar
    56    68    70   ar
    57    64    65    1
    58    82    84   ar
    59    82    81    1
    60    25    24    1
    61    26    24    1
    62    81    78    1
    63    24    23    1
    64    23    20    1
    65    22    21    2
    66    18    16    1
    67    21    20    1
    68    71    72    1
    69    20    19    1
    70    77    78    1
    71    77    73   am
    72   119   118    1
    73    75    76    1
    74    75    72    1
    75    78    79    1
    76    17    16    1
    77    16    13    1
    78    72    73    1
    79    79    80    2
    80    15    14    2
    81    73    74    2
    82    13    14    1
    83    13    12    1
    84   118   117    1
    85   110   108    1
    86    10     9    2
    87    12     9   am
    88     9     8    1
    89   117   116    1
    90   108   107    1
    91    11     8    1
    92    91    92    1
    93    91    88    1
    94     8     7    1
    95   107   109    1
    96   107   104    1
    97   116   115    1
    98   101   102   ar
    99   101    99   ar
   100   102   100   ar
   101   106   105    2
   102    87    88    1
   103    99    98   ar
   104   100    98   ar
   105     7     3   am
   106    98    97    1
   107     6     5    1
   108    88    89    1
   109   105   104    1
   110   105   111   am
   111    97    94    1
   112   112   115    1
   113   112   111    1
   114   112   113    1
   115   104   103    1
   116     5     2    1
   117     3     4    2
   118     3     2    1
   119    90    89    2
   120   113   114    2
   121   127   126   ar
   122     2     1    1
   123   128   126   ar
   124    94    93    1
   125    94    95    1
   126   126   125    1
   127    95    96    2
   128   132   131    2
   129   131   130    1
   130   125   124    1
   131   129   130    1
   132   129   122   am
   133   124   121    1
   134   121   122    1
   135   121   120    1
   136   122   123    2
