@<TRIPOS>MOLECULE
tmp/2fnuB00.pdb
 102 99 0 0 0
SMALL
GASTEIGER

@<TRIPOS>ATOM
      1  N         16.0220   35.7460   42.4780 N.3    26  LYS26      -0.1231
      2  CA        16.3800   34.3850   42.1030 C.3    26  LYS26       0.1693
      3  C         15.6930   33.9510   40.8010 C.2    26  LYS26       0.2592
      4  O         15.9420   32.8480   40.3050 O.2    26  LYS26      -0.2718
      5  CB        15.9810   33.4070   43.2150 C.3    26  LYS26       0.0285
      6  CG        16.5880   33.7070   44.5780 C.3    26  LYS26       0.0035
      7  CD        18.0980   33.6540   44.5320 C.3    26  LYS26       0.0206
      8  CE        18.7020   33.8410   45.9220 C.3    26  LYS26       0.1093
      9  NZ        20.1300   34.2870   45.8290 N.3    26  LYS26      -0.1314
     10  N         14.8310   34.8050   40.2490 N.am   27  GLN27      -0.1966
     11  CA        14.0730   34.4270   39.0580 C.3    27  GLN27       0.1733
     12  C         14.5450   35.2670   37.8770 C.2    27  GLN27       0.2616
     13  O         14.0860   36.3930   37.6720 O.2    27  GLN27      -0.2715
     14  CB        12.5660   34.5840   39.3000 C.3    27  GLN27       0.0408
     15  CG        11.6830   33.7870   38.3330 C.3    27  GLN27       0.0908
     16  CD        11.8740   32.2640   38.4340 C.2    27  GLN27       0.2608
     17  OE1       12.3460   31.7370   39.4480 O.2    27  GLN27      -0.2717
     18  NE2       11.5000   31.5570   37.3750 N.am   27  GLN27      -0.0878
     19  N         15.4830   34.7140   37.1110 N.am   28  LEU28      -0.1963
     20  CA        16.0890   35.4510   35.9980 C.3    28  LEU28       0.1728
     21  C         15.4070   35.1470   34.6760 C.2    28  LEU28       0.2617
     22  O         15.6560   35.8360   33.6880 O.2    28  LEU28      -0.2715
     23  CB        17.5730   35.0900   35.8360 C.3    28  LEU28       0.0311
     24  CG        18.4840   35.5020   36.9940 C.3    28  LEU28       0.0022
     25  CD1       19.9130   35.1260   36.6940 C.3    28  LEU28       0.0001
     26  CD2       18.4100   37.0030   37.2800 C.3    28  LEU28       0.0001
     27  N         14.6000   34.0970   34.6500 N.am   29  THR29      -0.1937
     28  CA        13.8050   33.7690   33.4640 C.3    29  THR29       0.2028
     29  C         12.4920   33.0830   33.8560 C.2    29  THR29       0.2642
     30  O         12.3000   32.7040   35.0230 O.2    29  THR29      -0.2714
     31  CB        14.6320   32.9850   32.4150 C.3    29  THR29       0.1808
     32  OG1       13.9260   32.9910   31.1630 O.3    29  THR29      -0.2208
     33  CG2       14.9200   31.5410   32.8690 C.3    29  THR29       0.0379
     34  N         11.5750   32.9600   32.9020 N.am   30  GLN30      -0.1976
     35  CA        10.3100   32.2700   33.1570 C.3    30  GLN30       0.1601
     36  C          9.6310   32.8180   34.4170 C.2    30  GLN30       0.2287
     37  O          9.2180   32.0540   35.3070 O.2    30  GLN30      -0.2864
     38  CB        10.5770   30.7680   33.3050 C.3    30  GLN30       0.0394
     39  CG        11.1780   30.1130   32.0560 C.3    30  GLN30       0.0908
     40  CD        11.7630   28.7590   32.3810 C.2    30  GLN30       0.2608
     41  OE1       12.8330   28.6580   33.0160 O.2    30  GLN30      -0.2717
     42  NE2       11.0640   27.7140   31.9750 N.am   30  GLN30      -0.0878
     43  N          9.2880   24.6660   24.0900 N.3   210  HIS210     -0.1241
     44  CA         9.4020   23.2060   24.1050 C.3   210  HIS210      0.1621
     45  C          8.1460   22.3810   23.8500 C.2   210  HIS210      0.2264
     46  O          8.2310   21.1420   23.8800 O.2   210  HIS210     -0.2867
     47  CB        10.0320   22.7460   25.4290 C.3   210  HIS210      0.0745
     48  CG        11.3240   23.4340   25.7320 C.ar  210  HIS210      0.0817
     49  ND1       12.4370   23.3010   24.9250 N.ar  210  HIS210     -0.2268
     50  CD2       11.6770   24.2740   26.7350 C.ar  210  HIS210      0.1154
     51  CE1       13.4230   24.0330   25.4250 C.ar  210  HIS210      0.1986
     52  NE2       12.9850   24.6380   26.5190 N.ar  210  HIS210     -0.2212
     53  N          5.8790   22.2940   25.9050 N.3   212  MET212     -0.1245
     54  CA         5.6260   21.7390   27.2530 C.3   212  MET212      0.1570
     55  C          4.3490   22.2490   27.9110 C.2   212  MET212      0.2261
     56  O          4.1540   23.4530   28.0920 O.2   212  MET212     -0.2867
     57  CB         6.8300   22.0170   28.1800 C.3   212  MET212      0.0387
     58  CG         6.7720   21.3440   29.5510 C.3   212  MET212      0.0595
     59  SD         6.9140   19.5410   29.4270 S.3   212  MET212     -0.1393
     60  CE         8.6050   19.3270   28.8960 C.3   212  MET212      0.0692
     61  N          2.4870   21.6990   31.5550 N.3   214  LYS214     -0.1245
     62  CA         2.7990   21.1230   32.8620 C.3   214  LYS214      0.1561
     63  C          1.5420   20.5720   33.5190 C.2   214  LYS214      0.2260
     64  O          0.5400   21.2740   33.6250 O.2   214  LYS214     -0.2867
     65  CB         3.5130   22.1300   33.7790 C.3   214  LYS214      0.0271
     66  CG         4.9610   22.5040   33.3610 C.3   214  LYS214      0.0035
     67  CD         5.9370   21.2960   33.2720 C.3   214  LYS214      0.0206
     68  CE         6.2500   20.6510   34.6270 C.3   214  LYS214      0.1093
     69  NZ         6.6640   21.6250   35.6930 N.3   214  LYS214     -0.1314
     70  N          4.1960   20.2530   39.3200 N.3   217  PHE217     -0.1227
     71  CA         5.5860   20.6930   39.4370 C.3   217  PHE217      0.1736
     72  C          6.5110   19.6690   38.7950 C.2   217  PHE217      0.2595
     73  O          7.5430   20.0290   38.2070 O.2   217  PHE217     -0.2718
     74  CB         5.9860   20.9210   40.9090 C.3   217  PHE217      0.0547
     75  CG         7.4080   21.4130   41.0950 C.ar  217  PHE217     -0.0202
     76  CD1        7.6920   22.7750   41.1040 C.ar  217  PHE217     -0.0042
     77  CD2        8.4580   20.5140   41.2760 C.ar  217  PHE217     -0.0042
     78  CE1        8.9990   23.2320   41.2770 C.ar  217  PHE217     -0.0003
     79  CE2        9.7580   20.9540   41.4530 C.ar  217  PHE217     -0.0003
     80  CZ        10.0360   22.3170   41.4520 C.ar  217  PHE217     -0.0000
     81  N          6.1180   18.3960   38.8900 N.am  218  PHE218     -0.1976
     82  CA         7.0110   17.2850   38.5800 C.3   218  PHE218      0.1639
     83  C          6.9250   16.7440   37.1720 C.2   218  PHE218      0.2290
     84  O          7.8960   16.1830   36.6800 O.2   218  PHE218     -0.2864
     85  CB         6.7820   16.1340   39.5620 C.3   218  PHE218      0.0560
     86  CG         6.8360   16.5600   40.9840 C.ar  218  PHE218     -0.0200
     87  CD1        5.6760   16.6470   41.7390 C.ar  218  PHE218     -0.0042
     88  CD2        8.0500   16.9280   41.5620 C.ar  218  PHE218     -0.0042
     89  CE1        5.7270   17.0700   43.0660 C.ar  218  PHE218     -0.0003
     90  CE2        8.1090   17.3530   42.8820 C.ar  218  PHE218     -0.0003
     91  CZ         6.9370   17.4300   43.6320 C.ar  218  PHE218     -0.0000
     92  N         12.4710   32.0730   24.5120 N.3   230  ARG230     -0.1245
     93  CA        11.9370   32.9090   25.5910 C.3   230  ARG230      0.1563
     94  C         12.7340   34.1940   25.7420 C.2   230  ARG230      0.2260
     95  O         13.9500   34.2420   25.4620 O.2   230  ARG230     -0.2867
     96  CB        11.9490   32.1310   26.9050 C.3   230  ARG230      0.0307
     97  CG        11.0520   30.8860   26.8810 C.3   230  ARG230      0.0489
     98  CD        10.9280   30.2580   28.2560 C.3   230  ARG230      0.2205
     99  NE        12.2270   29.8190   28.7920 N.pl3 230  ARG230     -0.0865
    100  CZ        12.6140   28.5510   28.9460 C.cat 230  ARG230      0.5346
    101  NH1       11.8200   27.5260   28.6160 N.pl3 230  ARG230      0.1354
    102  NH2       13.8050   28.2990   29.4830 N.pl3 230  ARG230      0.1354
@<TRIPOS>BOND
     1    45    46    2
     2    45    44    1
     3    43    44    1
     4    44    47    1
     5    92    93    1
     6    49    51   ar
     7    49    48   ar
     8    51    52   ar
     9    47    48    1
    10    95    94    2
    11    93    94    1
    12    93    96    1
    13    48    50   ar
    14    53    54    1
    15    52    50   ar
    16    97    96    1
    17    97    98    1
    18    54    55    1
    19    54    57    1
    20    55    56    2
    21    57    58    1
    22    98    99    1
    23   101   100    1
    24    99   100    2
    25    60    59    1
    26   100   102    1
    27    59    58    1
    28    32    31    1
    29    61    62    1
    30    42    40   am
    31    39    40    1
    32    39    38    1
    33    40    41    2
    34    31    33    1
    35    31    28    1
    36    62    63    1
    37    62    65    1
    38    34    35    1
    39    34    29   am
    40    35    38    1
    41    35    36    1
    42    67    66    1
    43    67    68    1
    44    66    65    1
    45    28    29    1
    46    28    27    1
    47    63    64    2
    48    22    21    2
    49    29    30    2
    50    36    37    2
    51    68    69    1
    52    27    21   am
    53    21    20    1
    54    23    20    1
    55    23    24    1
    56    20    19    1
    57    84    83    2
    58    25    24    1
    59    24    26    1
    60    19    12   am
    61    83    82    1
    62    18    16   am
    63    13    12    2
    64    12    11    1
    65    73    72    2
    66    15    16    1
    67    15    14    1
    68    16    17    2
    69    82    81    1
    70    82    85    1
    71    72    81   am
    72    72    71    1
    73    11    14    1
    74    11    10    1
    75    70    71    1
    76    71    74    1
    77    85    86    1
    78    10     3   am
    79     4     3    2
    80     3     2    1
    81    74    75    1
    82    86    88   ar
    83    86    87   ar
    84    75    76   ar
    85    75    77   ar
    86    76    78   ar
    87    77    79   ar
    88    78    80   ar
    89    80    79   ar
    90    88    90   ar
    91    87    89   ar
    92     2     1    1
    93     2     5    1
    94    90    91   ar
    95    89    91   ar
    96     5     6    1
    97     7     6    1
    98     7     8    1
    99     9     8    1
