@<TRIPOS>MOLECULE
tmp/2fo0A01.pdb
 194 185 0 0 0
SMALL
GASTEIGER

@<TRIPOS>ATOM
      1  N         -5.3340    4.7840   11.1320 N.3   200  HIS200     -0.1241
      2  CA        -4.4780    3.9010   11.9090 C.3   200  HIS200      0.1621
      3  C         -3.9630    4.5630   13.1850 C.2   200  HIS200      0.2264
      4  O         -3.8440    5.7890   13.2630 O.2   200  HIS200     -0.2867
      5  CB        -3.2970    3.4420   11.0510 C.3   200  HIS200      0.0745
      6  CG        -2.4510    4.5670   10.5370 C.ar  200  HIS200      0.0817
      7  ND1       -2.9330    5.5250    9.6700 N.ar  200  HIS200     -0.2268
      8  CD2       -1.1570    4.8890   10.7710 C.ar  200  HIS200      0.1154
      9  CE1       -1.9710    6.3870    9.3920 C.ar  200  HIS200      0.1986
     10  NE2       -0.8830    6.0240   10.0470 N.ar  200  HIS200     -0.2212
     11  N         -1.2630    5.6520   16.1320 N.3   202  LEU202     -0.1231
     12  CA         0.0870    6.2130   16.0410 C.3   202  LEU202      0.1693
     13  C          1.0650    5.6480   17.0670 C.2   202  LEU202      0.2592
     14  O          0.6960    5.3750   18.2000 O.2   202  LEU202     -0.2718
     15  CB         0.0310    7.7390   16.1900 C.3   202  LEU202      0.0284
     16  CG        -0.5170    8.5320   15.0040 C.3   202  LEU202      0.0019
     17  CD1       -0.8180    9.9540   15.4430 C.3   202  LEU202      0.0001
     18  CD2        0.4990    8.5230   13.8630 C.3   202  LEU202      0.0001
     19  N          2.3180    5.4840   16.6560 N.am  203  GLY203     -0.1957
     20  CA         3.3390    4.9730   17.5520 C.3   203  GLY203      0.1869
     21  C          3.0460    3.6030   18.1350 C.2   203  GLY203      0.2309
     22  O          3.3070    3.3590   19.3200 O.2   203  GLY203     -0.2863
     23  N          1.6220    5.5950   22.8980 N.3   207  TYR207     -0.1241
     24  CA         1.1290    6.8530   23.4540 C.3   207  TYR207      0.1605
     25  C         -0.2970    6.7310   23.9570 C.2   207  TYR207      0.2264
     26  O         -0.8970    7.7080   24.3980 O.2   207  TYR207     -0.2867
     27  CB         1.1950    7.9700   22.4070 C.3   207  TYR207      0.0534
     28  CG         2.5790    8.1880   21.8610 C.ar  207  TYR207     -0.0201
     29  CD1        2.9480    7.6850   20.6170 C.ar  207  TYR207     -0.0009
     30  CD2        3.5320    8.8710   22.6050 C.ar  207  TYR207     -0.0009
     31  CE1        4.2450    7.8620   20.1230 C.ar  207  TYR207      0.0417
     32  CE2        4.8270    9.0480   22.1290 C.ar  207  TYR207      0.0417
     33  CZ         5.1770    8.5390   20.8900 C.ar  207  TYR207      0.1957
     34  OH         6.4660    8.6850   20.4420 O.3   207  TYR207     -0.2866
     35  N         -4.1360    6.9540   20.5640 N.3   210  VAL210     -0.1245
     36  CA        -3.9030    8.0710   19.6640 C.3   210  VAL210      0.1561
     37  C         -3.8640    7.6070   18.2150 C.2   210  VAL210      0.2260
     38  O         -3.0750    6.7380   17.8410 O.2   210  VAL210     -0.2867
     39  CB        -2.5960    8.7930   20.0400 C.3   210  VAL210      0.0252
     40  CG1       -2.3980   10.0030   19.1650 C.3   210  VAL210      0.0019
     41  CG2       -2.6470    9.2090   21.5100 C.3   210  VAL210      0.0019
     42  N         -4.0470    8.6520   13.8740 N.3   212  GLU212     -0.1245
     43  CA        -3.8320    9.6870   12.8900 C.3   212  GLU212      0.1567
     44  C         -5.2430    9.9040   12.3560 C.2   212  GLU212      0.2260
     45  O         -6.0330    8.9620   12.2810 O.2   212  GLU212     -0.2867
     46  CB        -2.9040    9.2140   11.7730 C.3   212  GLU212      0.0388
     47  CG        -2.8280   10.1870   10.6040 C.3   212  GLU212      0.1160
     48  CD        -1.6820    9.8910    9.6470 C.2   212  GLU212      0.3649
     49  OE1       -1.7030   10.4270    8.5170 O.co2 212  GLU212     -0.2457
     50  OE2       -0.7550    9.1350   10.0250 O.co2 212  GLU212     -0.2457
     51  N         -3.9200   14.6190   14.8310 N.3   223  ALA223     -0.1245
     52  CA        -3.7260   13.5000   15.7410 C.3   223  ALA223      0.1562
     53  C         -4.9650   13.5130   16.6170 C.2   223  ALA223      0.2260
     54  O         -5.4680   14.5820   16.9640 O.2   223  ALA223     -0.2867
     55  CB        -2.4800   13.7010   16.5750 C.3   223  ALA223      0.0290
     56  N         -6.7180   11.7210   20.1440 N.3   225  LYS225     -0.1245
     57  CA        -6.6430   10.8300   21.2850 C.3   225  LYS225      0.1561
     58  C         -8.0530   10.5270   21.7600 C.2   225  LYS225      0.2260
     59  O         -8.8350   11.4340   22.0310 O.2   225  LYS225     -0.2867
     60  CB        -5.8470   11.4490   22.4290 C.3   225  LYS225      0.0271
     61  CG        -6.0730   10.7050   23.7510 C.3   225  LYS225      0.0035
     62  CD        -4.7820   10.2730   24.4160 C.3   225  LYS225      0.0206
     63  CE        -4.0220   11.4480   24.9850 C.3   225  LYS225      0.1093
     64  NZ        -2.8970   10.9730   25.8340 N.3   225  LYS225     -0.1314
     65  N         -7.0230   16.5490   31.0800 N.3   240  GLU240     -0.1245
     66  CA        -5.9830   16.7670   30.0720 C.3   240  GLU240      0.1567
     67  C         -6.4760   17.7550   29.0130 C.2   240  GLU240      0.2260
     68  O         -5.7330   18.6370   28.5790 O.2   240  GLU240     -0.2867
     69  CB        -5.5720   15.4350   29.4230 C.3   240  GLU240      0.0388
     70  CG        -4.4770   15.5560   28.3630 C.3   240  GLU240      0.1160
     71  CD        -3.8300   14.2160   28.0120 C.2   240  GLU240      0.3649
     72  OE1       -3.1170   13.6510   28.8680 O.co2 240  GLU240     -0.2457
     73  OE2       -4.0310   13.7240   26.8800 O.co2 240  GLU240     -0.2457
     74  N         -4.7730   21.3960   28.2750 N.3   244  MET244     -0.1245
     75  CA        -4.3410   21.6740   26.9180 C.3   244  MET244      0.1570
     76  C         -4.8970   22.9650   26.3470 C.2   244  MET244      0.2261
     77  O         -4.2110   23.6790   25.6140 O.2   244  MET244     -0.2867
     78  CB        -4.6780   20.4900   26.0250 C.3   244  MET244      0.0387
     79  CG        -3.8800   19.2720   26.4280 C.3   244  MET244      0.0595
     80  SD        -3.6420   18.1590   25.0880 S.3   244  MET244     -0.1393
     81  CE        -2.3170   18.9800   24.2210 C.3   244  MET244      0.0692
     82  N          2.8670   20.6060   21.8880 N.3   253  VAL253     -0.1245
     83  CA         1.8420   20.2360   20.9170 C.3   253  VAL253      0.1561
     84  C          0.5340   20.9820   21.1640 C.2   253  VAL253      0.2260
     85  O         -0.0350   20.9410   22.2560 O.2   253  VAL253     -0.2867
     86  CB         1.6090   18.7080   20.9000 C.3   253  VAL253      0.0252
     87  CG1        0.6080   18.3400   19.8050 C.3   253  VAL253      0.0019
     88  CG2        2.9280   18.0050   20.6350 C.3   253  VAL253      0.0019
     89  N         -9.7830   14.3730   21.7840 N.3   267  ILE267     -0.1245
     90  CA        -8.8590   15.4770   22.0140 C.3   267  ILE267      0.1561
     91  C         -8.1080   15.5400   20.6820 C.2   267  ILE267      0.2260
     92  O         -7.3450   14.6330   20.3620 O.2   267  ILE267     -0.2867
     93  CB        -7.8470   15.2010   23.1380 C.3   267  ILE267      0.0252
     94  CG1       -8.5390   15.2360   24.5000 C.3   267  ILE267      0.0019
     95  CG2       -6.7560   16.2590   23.1050 C.3   267  ILE267      0.0019
     96  CD1       -7.5950   14.9870   25.6720 C.3   267  ILE267      0.0001
     97  N         -5.4410   17.4080   18.1070 N.3   269  THR269     -0.1203
     98  CA        -4.2870   18.2920   18.0640 C.3   269  THR269      0.1994
     99  C         -3.6570   18.3000   16.6820 C.2   269  THR269      0.2618
    100  O         -4.0510   17.5340   15.8000 O.2   269  THR269     -0.2717
    101  CB        -3.2000   17.8420   19.0590 C.3   269  THR269      0.1784
    102  OG1       -2.5720   16.6540   18.5680 O.3   269  THR269     -0.2211
    103  CG2       -3.8040   17.5370   20.4160 C.3   269  THR269      0.0376
    104  N         -2.6670   19.1670   16.5050 N.am  270  GLU270     -0.1965
    105  CA        -1.9510   19.2560   15.2420 C.3   270  GLU270      0.1733
    106  C         -1.1800   17.9450   15.0610 C.2   270  GLU270      0.2616
    107  O         -0.8560   17.2540   16.0340 O.2   270  GLU270     -0.2715
    108  CB        -0.9700   20.4290   15.2680 C.3   270  GLU270      0.0429
    109  CG        -0.0120   20.3900   16.4600 C.3   270  GLU270      0.1163
    110  CD         1.0360   21.4960   16.4430 C.2   270  GLU270      0.3649
    111  OE1        1.6310   21.7610   17.5140 O.co2 270  GLU270     -0.2457
    112  OE2        1.2750   22.0870   15.3680 O.co2 270  GLU270     -0.2457
    113  N         -0.8910   17.6030   13.8150 N.am  271  PHE271     -0.1960
    114  CA        -0.1640   16.3860   13.5200 C.3   271  PHE271      0.1771
    115  C          1.3070   16.7000   13.2550 C.2   271  PHE271      0.2619
    116  O          1.6230   17.4970   12.3770 O.2   271  PHE271     -0.2715
    117  CB        -0.7780   15.7070   12.2930 C.3   271  PHE271      0.0574
    118  CG        -0.1060   14.4200   11.9090 C.ar  271  PHE271     -0.0200
    119  CD1       -0.3420   13.2520   12.6290 C.ar  271  PHE271     -0.0042
    120  CD2        0.7680   14.3750   10.8300 C.ar  271  PHE271     -0.0042
    121  CE1        0.2830   12.0560   12.2760 C.ar  271  PHE271     -0.0003
    122  CE2        1.3960   13.1860   10.4710 C.ar  271  PHE271     -0.0003
    123  CZ         1.1510   12.0250   11.1970 C.ar  271  PHE271     -0.0000
    124  N          2.2020   16.1010   14.0360 N.am  272  MET272     -0.1963
    125  CA         3.6300   16.2970   13.8300 C.3   272  MET272      0.1736
    126  C          3.9660   15.2140   12.8020 C.2   272  MET272      0.2617
    127  O          3.8750   14.0130   13.0880 O.2   272  MET272     -0.2715
    128  CB         4.3940   16.0810   15.1360 C.3   272  MET272      0.0427
    129  CG         3.9830   17.0360   16.2550 C.3   272  MET272      0.0599
    130  SD         3.9940   18.8030   15.7700 S.3   272  MET272     -0.1393
    131  CE         5.7200   19.0280   15.3590 C.3   272  MET272      0.0692
    132  N          4.3440   15.6450   11.6030 N.am  273  THR273     -0.1937
    133  CA         4.6050   14.7180   10.5030 C.3   273  THR273      0.2028
    134  C          5.7880   13.7560   10.5770 C.2   273  THR273      0.2642
    135  O          5.7680   12.7140    9.9250 O.2   273  THR273     -0.2714
    136  CB         4.7040   15.4820    9.1690 C.3   273  THR273      0.1808
    137  OG1        5.8550   16.3310    9.1950 O.3   273  THR273     -0.2208
    138  CG2        3.4810   16.3540    8.9670 C.3   273  THR273      0.0379
    139  N          6.8130   14.0620   11.3600 N.am  274  TYR274     -0.1959
    140  CA         7.9450   13.1520   11.3920 C.3   274  TYR274      0.1771
    141  C          8.1010   12.2160   12.5820 C.2   274  TYR274      0.2620
    142  O          9.1850   11.6870   12.8110 O.2   274  TYR274     -0.2715
    143  CB         9.2320   13.9330   11.1630 C.3   274  TYR274      0.0574
    144  CG         9.2610   14.5950    9.8050 C.ar  274  TYR274     -0.0198
    145  CD1        8.7240   15.8700    9.6130 C.ar  274  TYR274     -0.0009
    146  CD2        9.7750   13.9240    8.6930 C.ar  274  TYR274     -0.0009
    147  CE1        8.6960   16.4590    8.3470 C.ar  274  TYR274      0.0417
    148  CE2        9.7490   14.5050    7.4210 C.ar  274  TYR274      0.0417
    149  CZ         9.2080   15.7690    7.2580 C.ar  274  TYR274      0.1957
    150  OH         9.1680   16.3430    6.0050 O.3   274  TYR274     -0.2866
    151  N          7.0290   11.9770   13.3260 N.am  275  GLY275     -0.1940
    152  CA         7.1360   11.0710   14.4580 C.3   275  GLY275      0.2014
    153  C          7.9720   11.5890   15.6120 C.2   275  GLY275      0.2638
    154  O          8.2660   12.7840   15.6890 O.2   275  GLY275     -0.2714
    155  N          8.3720   10.6910   16.5100 N.am  276  ASN276     -0.1972
    156  CA         9.1450   11.0950   17.6760 C.3   276  ASN276      0.1688
    157  C         10.6320   11.3160   17.3990 C.2   276  ASN276      0.2292
    158  O         11.1980   10.7610   16.4570 O.2   276  ASN276     -0.2864
    159  CB         8.9550   10.0830   18.8140 C.3   276  ASN276      0.1181
    160  CG         9.6180    8.7440   18.5320 C.2   276  ASN276      0.2629
    161  OD1       10.8460    8.6460   18.4580 O.2   276  ASN276     -0.2716
    162  ND2        8.8060    7.7070   18.3750 N.am  276  ASN276     -0.0877
    163  N          8.2850   15.3370   19.5530 N.3   324  LEU324     -0.1245
    164  CA         7.8510   15.1300   18.1830 C.3   324  LEU324      0.1561
    165  C          8.4900   16.0950   17.2000 C.2   324  LEU324      0.2260
    166  O          8.7000   17.2690   17.5030 O.2   324  LEU324     -0.2867
    167  CB         6.3300   15.2290   18.1340 C.3   324  LEU324      0.0270
    168  CG         5.6470   14.2210   19.0670 C.3   324  LEU324      0.0019
    169  CD1        4.1510   14.5010   19.1450 C.3   324  LEU324      0.0001
    170  CD2        5.9030   12.8000   18.5650 C.3   324  LEU324      0.0001
    171  N          5.6170   16.4040   23.8620 N.3   334  ALA334     -0.1231
    172  CA         4.2610   15.8670   23.9650 C.3   334  ALA334      0.1694
    173  C          3.7580   16.2680   25.3500 C.2   334  ALA334      0.2592
    174  O          4.3360   15.8690   26.3560 O.2   334  ALA334     -0.2718
    175  CB         4.2920   14.3560   23.8350 C.3   334  ALA334      0.0304
    176  N          2.6890   17.0590   25.4080 N.am  335  ASP335     -0.1960
    177  CA         2.1610   17.5220   26.6930 C.3   335  ASP335      0.1840
    178  C          1.0200   16.7080   27.2850 C.2   335  ASP335      0.2622
    179  O          0.0490   17.2680   27.7970 O.2   335  ASP335     -0.2715
    180  CB         1.7290   18.9960   26.6040 C.3   335  ASP335      0.1450
    181  CG         1.0380   19.3250   25.2950 C.2   335  ASP335      0.3671
    182  OD1        0.4080   18.4140   24.7100 O.co2 335  ASP335     -0.2456
    183  OD2        1.1210   20.4960   24.8550 O.co2 335  ASP335     -0.2456
    184  N          1.1350   15.3880   27.2240 N.am  336  PHE336     -0.1974
    185  CA         0.1090   14.5330   27.8070 C.3   336  PHE336      0.1639
    186  C          0.4980   14.2630   29.2680 C.2   336  PHE336      0.2290
    187  O          1.6670   14.3600   29.6350 O.2   336  PHE336     -0.2864
    188  CB        -0.0060   13.2100   27.0160 C.3   336  PHE336      0.0560
    189  CG         1.2540   12.3650   27.0300 C.ar  336  PHE336     -0.0200
    190  CD1        1.6430   11.6780   28.1810 C.ar  336  PHE336     -0.0042
    191  CD2        2.0630   12.2800   25.8960 C.ar  336  PHE336     -0.0042
    192  CE1        2.8240   10.9200   28.2020 C.ar  336  PHE336     -0.0003
    193  CE2        3.2510   11.5250   25.9050 C.ar  336  PHE336     -0.0003
    194  CZ         3.6310   10.8460   27.0580 C.ar  336  PHE336     -0.0000
@<TRIPOS>BOND
     1   150   149    1
     2   149   148   ar
     3   149   147   ar
     4   148   146   ar
     5   147   145   ar
     6    49    48   ar
     7   146   144   ar
     8   138   136    1
     9   136   137    1
    10   136   133    1
    11     9     7   ar
    12     9    10   ar
    13   145   144   ar
    14    48    50   ar
    15    48    47    1
    16     7     6   ar
    17   144   143    1
    18   135   134    2
    19    10     8   ar
    20   122   120   ar
    21   122   123   ar
    22   133   134    1
    23   133   132    1
    24     6     8   ar
    25     6     5    1
    26   134   139   am
    27    47    46    1
    28   120   118   ar
    29     5     2    1
    30     1     2    1
    31   143   140    1
    32   123   121   ar
    33   139   140    1
    34   140   141    1
    35   132   126   am
    36    46    43    1
    37   118   117    1
    38   118   119   ar
    39     2     3    1
    40   121   119   ar
    41    45    44    2
    42   117   114    1
    43    44    43    1
    44   116   115    2
    45   141   142    2
    46   141   151   am
    47   126   127    2
    48   126   125    1
    49    43    42    1
    50     3     4    2
    51   115   114    1
    52   115   124   am
    53   151   152    1
    54   114   113    1
    55   113   106   am
    56   125   124    1
    57   125   128    1
    58    18    16    1
    59   152   153    1
    60    51    52    1
    61    16    17    1
    62    16    15    1
    63   106   105    1
    64   106   107    2
    65   128   129    1
    66   105   108    1
    67   105   104    1
    68   108   109    1
    69   131   130    1
    70   112   110   ar
    71   153   154    2
    72   153   155   am
    73    52    55    1
    74    52    53    1
    75   130   129    1
    76   100    99    2
    77    12    11    1
    78    12    15    1
    79    12    13    1
    80   110   109    1
    81   110   111   ar
    82   158   157    2
    83   104    99   am
    84   155   156    1
    85    53    54    2
    86    19    13   am
    87    19    20    1
    88    99    98    1
    89    13    14    2
    90   165   166    2
    91   165   164    1
    92   157   156    1
    93    20    21    1
    94   156   159    1
    95    38    37    2
    96    98    97    1
    97    98   101    1
    98   167   164    1
    99   167   168    1
   100    21    22    2
   101   164   163    1
   102    37    36    1
   103   162   160   am
   104   161   160    2
   105   160   159    1
   106   170   168    1
   107   102   101    1
   108   101   103    1
   109   168   169    1
   110    40    39    1
   111    36    39    1
   112    36    35    1
   113    87    86    1
   114    39    41    1
   115    31    29   ar
   116    31    33   ar
   117    56    57    1
   118    92    91    2
   119    34    33    1
   120    29    28   ar
   121    88    86    1
   122    91    90    1
   123    33    32   ar
   124    86    83    1
   125    83    84    1
   126    83    82    1
   127    84    85    2
   128    57    58    1
   129    57    60    1
   130    58    59    2
   131    89    90    1
   132    28    27    1
   133    28    30   ar
   134    90    93    1
   135    32    30   ar
   136    27    24    1
   137    60    61    1
   138    23    24    1
   139    95    93    1
   140    93    94    1
   141    24    25    1
   142    61    62    1
   143   175   172    1
   144   171   172    1
   145    25    26    2
   146   172   173    1
   147    81    80    1
   148    62    63    1
   149    94    96    1
   150   182   181   ar
   151   183   181   ar
   152    63    64    1
   153    80    79    1
   154   181   180    1
   155   173   176   am
   156   173   174    2
   157   176   177    1
   158    77    76    2
   159   191   193   ar
   160   191   189   ar
   161   193   194   ar
   162    78    79    1
   163    78    75    1
   164    76    75    1
   165   180   177    1
   166   177   178    1
   167    73    71   ar
   168    75    74    1
   169   188   189    1
   170   188   185    1
   171   189   190   ar
   172   194   192   ar
   173   184   178   am
   174   184   185    1
   175   178   179    2
   176   185   186    1
   177    71    70    1
   178    71    72   ar
   179   190   192   ar
   180    70    69    1
   181    68    67    2
   182    67    66    1
   183   186   187    2
   184    69    66    1
   185    66    65    1
