@<TRIPOS>MOLECULE
tmp/2fo0A00.pdb
 137 127 0 0 0
SMALL
GASTEIGER

@<TRIPOS>ATOM
      1  N         23.0480   11.9810    9.2900 N.3   286  ARG286     -0.1245
      2  CA        23.8590   12.7790   10.2020 C.3   286  ARG286      0.1563
      3  C         24.6340   13.9420    9.6090 C.2   286  ARG286      0.2260
      4  O         25.1820   14.7670   10.3450 O.2   286  ARG286     -0.2867
      5  CB        24.8000   11.8670   10.9770 C.3   286  ARG286      0.0307
      6  CG        24.0430   10.8370   11.7900 C.3   286  ARG286      0.0489
      7  CD        24.9400   10.1080   12.7440 C.3   286  ARG286      0.2205
      8  NE        24.2430    8.9760   13.3300 N.pl3 286  ARG286     -0.0865
      9  CZ        24.7940    8.1380   14.1960 C.cat 286  ARG286      0.5346
     10  NH1       26.0530    8.3160   14.5740 N.pl3 286  ARG286      0.1354
     11  NH2       24.0930    7.1230   14.6770 N.pl3 286  ARG286      0.1354
     12  N         25.6640   18.9050   14.3200 N.3   291  ALA291     -0.1245
     13  CA        25.6800   19.4800   15.6600 C.3   291  ALA291      0.1562
     14  C         24.8420   20.7460   15.8050 C.2   291  ALA291      0.2260
     15  O         24.2010   20.9470   16.8350 O.2   291  ALA291     -0.2867
     16  CB        27.1250   19.7490   16.0930 C.3   291  ALA291      0.0290
     17  N         21.2810   19.5920   16.2730 N.3   294  LEU294     -0.1231
     18  CA        21.0590   18.9510   17.5610 C.3   294  LEU294      0.1693
     19  C         20.8570   20.0400   18.6180 C.2   294  LEU294      0.2591
     20  O         19.9280   19.9740   19.4220 O.2   294  LEU294     -0.2718
     21  CB        22.2580   18.0630   17.9280 C.3   294  LEU294      0.0284
     22  CG        22.5150   16.8400   17.0300 C.3   294  LEU294      0.0019
     23  CD1       23.5890   15.9430   17.6520 C.3   294  LEU294      0.0001
     24  CD2       21.2170   16.0520   16.8530 C.3   294  LEU294      0.0001
     25  N         21.7200   21.0510   18.5960 N.am  295  LEU295     -0.1980
     26  CA        21.6390   22.1590   19.5470 C.3   295  LEU295      0.1596
     27  C         20.3250   22.8990   19.3650 C.2   295  LEU295      0.2287
     28  O         19.6720   23.3020   20.3360 O.2   295  LEU295     -0.2864
     29  CB        22.8000   23.1180   19.3190 C.3   295  LEU295      0.0297
     30  CG        22.9430   24.3360   20.2290 C.3   295  LEU295      0.0022
     31  CD1       23.2480   23.8930   21.6610 C.3   295  LEU295      0.0001
     32  CD2       24.0680   25.1910   19.7010 C.3   295  LEU295      0.0001
     33  N         17.7330   20.7310   20.9310 N.3   298  ALA298     -0.1245
     34  CA        17.8490   20.6720   22.3820 C.3   298  ALA298      0.1562
     35  C         17.3670   21.9900   22.9850 C.2   298  ALA298      0.2260
     36  O         16.7900   22.0160   24.0750 O.2   298  ALA298     -0.2867
     37  CB        19.3000   20.4000   22.7910 C.3   298  ALA298      0.0290
     38  N         19.1520   14.8980   26.8420 N.3   383  LEU383     -0.1245
     39  CA        20.2440   15.6360   26.2080 C.3   383  LEU383      0.1561
     40  C         21.2970   14.6500   25.7150 C.2   383  LEU383      0.2260
     41  O         21.9150   14.8430   24.6690 O.2   383  LEU383     -0.2867
     42  CB        20.8990   16.5970   27.2080 C.3   383  LEU383      0.0270
     43  CG        21.3190   17.9760   26.6870 C.3   383  LEU383      0.0019
     44  CD1       22.3530   18.5780   27.6360 C.3   383  LEU383      0.0001
     45  CD2       21.8930   17.8640   25.2910 C.3   383  LEU383      0.0001
     46  N         20.1870   12.9200   22.6070 N.3   386  ILE386     -0.1231
     47  CA        20.3900   13.7780   21.4600 C.3   386  ILE386      0.1692
     48  C         21.8540   13.7550   21.0220 C.2   386  ILE386      0.2591
     49  O         22.1420   13.5860   19.8350 O.2   386  ILE386     -0.2718
     50  CB        19.9300   15.2120   21.7710 C.3   386  ILE386      0.0266
     51  CG1       18.3970   15.2270   21.9000 C.3   386  ILE386      0.0019
     52  CG2       20.4140   16.1700   20.6890 C.3   386  ILE386      0.0020
     53  CD1       17.7960   16.5630   22.3460 C.3   386  ILE386      0.0001
     54  N         22.7670   13.8700   21.9840 N.am  387  ALA387     -0.1980
     55  CA        24.1970   13.8800   21.6890 C.3   387  ALA387      0.1597
     56  C         24.7340   12.5780   21.0880 C.2   387  ALA387      0.2287
     57  O         25.7720   12.5790   20.4290 O.2   387  ALA387     -0.2864
     58  CB        24.9850   14.2400   22.9460 C.3   387  ALA387      0.0319
     59  N         22.7050   10.5500   19.1270 N.3   389  TYR389     -0.1241
     60  CA        21.8480   10.2120   17.9890 C.3   389  TYR389      0.1605
     61  C         20.9140    9.0310   18.2630 C.2   389  TYR389      0.2264
     62  O         20.6510    8.2200   17.3770 O.2   389  TYR389     -0.2867
     63  CB        22.6910    9.9280   16.7330 C.3   389  TYR389      0.0534
     64  CG        23.1920   11.1710   16.0220 C.ar  389  TYR389     -0.0201
     65  CD1       22.3290   11.9630   15.2600 C.ar  389  TYR389     -0.0009
     66  CD2       24.5280   11.5650   16.1210 C.ar  389  TYR389     -0.0009
     67  CE1       22.7820   13.1190   14.6140 C.ar  389  TYR389      0.0417
     68  CE2       24.9920   12.7200   15.4800 C.ar  389  TYR389      0.0417
     69  CZ        24.1160   13.4880   14.7290 C.ar  389  TYR389      0.1957
     70  OH        24.5900   14.6150   14.0900 O.3   389  TYR389     -0.2866
     71  N         30.8330   10.7460   22.5370 N.3   416  GLU416     -0.1231
     72  CA        31.8870   11.0070   21.5640 C.3   416  GLU416      0.1699
     73  C         31.6210   12.3130   20.8130 C.2   416  GLU416      0.2593
     74  O         30.5240   12.5320   20.3030 O.2   416  GLU416     -0.2718
     75  CB        31.9500    9.8450   20.5710 C.3   416  GLU416      0.0402
     76  CG        33.0630    9.9190   19.5470 C.3   416  GLU416      0.1161
     77  CD        32.8890    8.8740   18.4530 C.2   416  GLU416      0.3649
     78  OE1       32.5930    7.7020   18.7890 O.co2 416  GLU416     -0.2457
     79  OE2       33.0490    9.2220   17.2600 O.co2 416  GLU416     -0.2457
     80  N         32.6320   13.1720   20.7500 N.am  417  GLY417     -0.1942
     81  CA        32.4930   14.4370   20.0530 C.3   417  GLY417      0.2014
     82  C         31.6490   15.4800   20.7650 C.2   417  GLY417      0.2639
     83  O         31.5400   16.6170   20.2950 O.2   417  GLY417     -0.2714
     84  N         31.0560   15.1170   21.8980 N.am  418  CYS418     -0.1954
     85  CA        30.2260   16.0710   22.6240 C.3   418  CYS418      0.1828
     86  C         31.0760   17.1120   23.3240 C.2   418  CYS418      0.2467
     87  O         31.8990   16.7830   24.1710 O.2   418  CYS418     -0.2730
     88  CB        29.3440   15.3650   23.6570 C.3   418  CYS418      0.0996
     89  SG        28.4080   16.5020   24.7220 S.3   418  CYS418     -0.0797
     90  N         30.8870   18.3910   22.9740 N.am  419  PRO419     -0.2726
     91  CA        31.6700   19.4520   23.6130 C.3   419  PRO419      0.1402
     92  C         31.5380   19.4640   25.1410 C.2   419  PRO419      0.2269
     93  O         30.4500   19.2890   25.6970 O.2   419  PRO419     -0.2865
     94  CB        31.1530   20.7260   22.9390 C.3   419  PRO419      0.0296
     95  CG        29.8040   20.3560   22.4510 C.3   419  PRO419      0.0237
     96  CD        29.9600   18.9450   21.9770 C.3   419  PRO419      0.0939
     97  N         28.6440   21.0680   26.9250 N.3   422  VAL422     -0.1245
     98  CA        27.3590   20.3970   26.8980 C.3   422  VAL422      0.1561
     99  C         27.3140   19.2640   27.9210 C.2   422  VAL422      0.2260
    100  O         26.2940   19.0590   28.5910 O.2   422  VAL422     -0.2867
    101  CB        27.0580   19.8770   25.4820 C.3   422  VAL422      0.0252
    102  CG1       25.7210   19.1350   25.4560 C.3   422  VAL422      0.0019
    103  CG2       27.0240   21.0640   24.5170 C.3   422  VAL422      0.0019
    104  N         22.2550   27.4400   26.9790 N.3   447  PHE447     -0.1241
    105  CA        22.4490   27.0670   25.5790 C.3   447  PHE447      0.1605
    106  C         22.7000   28.2690   24.6690 C.2   447  PHE447      0.2264
    107  O         23.5520   28.2150   23.7870 O.2   447  PHE447     -0.2867
    108  CB        21.2340   26.2930   25.0540 C.3   447  PHE447      0.0534
    109  CG        21.1970   24.8450   25.4710 C.ar  447  PHE447     -0.0203
    110  CD1       22.2390   23.9790   25.1330 C.ar  447  PHE447     -0.0042
    111  CD2       20.1000   24.3350   26.1670 C.ar  447  PHE447     -0.0042
    112  CE1       22.1890   22.6200   25.4790 C.ar  447  PHE447     -0.0003
    113  CE2       20.0410   22.9810   26.5160 C.ar  447  PHE447     -0.0003
    114  CZ        21.0890   22.1230   26.1700 C.ar  447  PHE447     -0.0000
    115  N         29.3790   25.5120   17.5560 N.3   456  ILE456     -0.1245
    116  CA        29.3480   24.2020   18.1700 C.3   456  ILE456      0.1561
    117  C         30.0180   23.1860   17.2530 C.2   456  ILE456      0.2260
    118  O         30.5310   22.1700   17.7100 O.2   456  ILE456     -0.2867
    119  CB        27.8860   23.7570   18.4970 C.3   456  ILE456      0.0252
    120  CG1       27.9100   22.4190   19.2450 C.3   456  ILE456      0.0019
    121  CG2       27.0630   23.6430   17.2170 C.3   456  ILE456      0.0019
    122  CD1       26.5920   22.0170   19.8220 C.3   456  ILE456      0.0001
    123  N         32.9690   20.6310   18.2770 N.3   460  VAL460     -0.1245
    124  CA        32.8610   19.2040   18.0290 C.3   460  VAL460      0.1561
    125  C         34.1010   18.7590   17.2810 C.2   460  VAL460      0.2260
    126  O         34.6340   17.6780   17.5290 O.2   460  VAL460     -0.2867
    127  CB        31.6090   18.8690   17.1830 C.3   460  VAL460      0.0252
    128  CG1       31.6230   17.4010   16.7730 C.3   460  VAL460      0.0019
    129  CG2       30.3560   19.1790   17.9790 C.3   460  VAL460      0.0019
    130  N         36.8510   15.7700   18.5580 N.3   464  LEU464     -0.1245
    131  CA        37.1690   14.6050   17.7410 C.3   464  LEU464      0.1561
    132  C         38.6080   14.6800   17.2510 C.2   464  LEU464      0.2260
    133  O         39.4320   13.8280   17.5780 O.2   464  LEU464     -0.2867
    134  CB        36.2270   14.5190   16.5380 C.3   464  LEU464      0.0270
    135  CG        34.7400   14.3150   16.8260 C.3   464  LEU464      0.0019
    136  CD1       33.9830   14.1730   15.5210 C.3   464  LEU464      0.0001
    137  CD2       34.5500   13.0770   17.6740 C.3   464  LEU464      0.0001
@<TRIPOS>BOND
     1     1     2    1
     2     3     2    1
     3     3     4    2
     4     2     5    1
     5     5     6    1
     6     6     7    1
     7     7     8    1
     8     8     9    2
     9    70    69    1
    10     9    10    1
    11     9    11    1
    12    12    13    1
    13    67    69   ar
    14    67    65   ar
    15    69    68   ar
    16    65    64   ar
    17    68    66   ar
    18   136   135    1
    19    13    14    1
    20    13    16    1
    21    14    15    2
    22    64    66   ar
    23    64    63    1
    24    17    18    1
    25   134   135    1
    26   134   131    1
    27    63    60    1
    28   128   127    1
    29   135   137    1
    30    24    22    1
    31    22    23    1
    32    22    21    1
    33   127   129    1
    34   127   124    1
    35   121   119    1
    36   132   133    2
    37   132   131    1
    38   117   118    2
    39   117   116    1
    40    79    77   ar
    41   125   126    2
    42   125   124    1
    43    62    61    2
    44   115   116    1
    45    18    21    1
    46    18    19    1
    47   131   130    1
    48    60    61    1
    49    60    59    1
    50   124   123    1
    51   116   119    1
    52    77    78   ar
    53    77    76    1
    54   119   120    1
    55    25    19   am
    56    25    26    1
    57    19    20    2
    58   120   122    1
    59    29    26    1
    60    29    30    1
    61    27    26    1
    62    27    28    2
    63    76    75    1
    64    32    30    1
    65    49    48    2
    66    81    80    1
    67    81    82    1
    68    30    31    1
    69    83    82    2
    70    74    73    2
    71    57    56    2
    72    75    72    1
    73    52    50    1
    74    80    73   am
    75    82    84   am
    76    73    72    1
    77    33    34    1
    78    48    47    1
    79    48    54   am
    80    56    55    1
    81    47    50    1
    82    47    46    1
    83    72    71    1
    84    55    54    1
    85    55    58    1
    86    50    51    1
    87    84    85    1
    88    51    53    1
    89    96    95    1
    90    96    90    1
    91    34    37    1
    92    34    35    1
    93    95    94    1
    94    85    86    1
    95    85    88    1
    96    94    91    1
    97    90    86   am
    98    90    91    1
    99    35    36    2
   100    86    87    2
   101    91    92    1
   102    88    89    1
   103   107   106    2
   104   103   101    1
   105   106   105    1
   106    41    40    2
   107   108   109    1
   108   108   105    1
   109   110   109   ar
   110   110   112   ar
   111    92    93    2
   112    45    43    1
   113   102   101    1
   114   109   111   ar
   115   112   114   ar
   116   101    98    1
   117   105   104    1
   118    40    39    1
   119   111   113   ar
   120   114   113   ar
   121    39    38    1
   122    39    42    1
   123    43    42    1
   124    43    44    1
   125    98    97    1
   126    98    99    1
   127    99   100    2
