@<TRIPOS>MOLECULE
tmp/2fo5D00.pdb
 157 150 0 0 0
SMALL
GASTEIGER

@<TRIPOS>ATOM
      1  N        -33.6430   10.2990   31.5920 N.3    20  GLN20      -0.1245
      2  CA       -32.2610   10.7410   31.6850 C.3    20  GLN20       0.1566
      3  C        -31.2730    9.6440   31.2790 C.2    20  GLN20       0.2260
      4  O        -30.1080    9.9270   30.9880 O.2    20  GLN20      -0.2867
      5  CB       -31.9680   11.2100   33.1070 C.3    20  GLN20       0.0367
      6  CG       -31.9450   10.1050   34.1500 C.3    20  GLN20       0.0905
      7  CD       -31.7530   10.6620   35.5400 C.2    20  GLN20       0.2608
      8  OE1      -32.6480   11.3030   36.0890 O.2    20  GLN20      -0.2717
      9  NE2      -30.5790   10.4420   36.1110 N.am   20  GLN20      -0.0878
     10  N        -28.6930    6.4560   31.5500 N.3    22  LYS22      -0.1245
     11  CA       -27.6270    6.1150   32.4900 C.3    22  LYS22       0.1561
     12  C        -26.8830    7.3070   33.0890 C.2    22  LYS22       0.2260
     13  O        -26.2290    7.1800   34.1250 O.2    22  LYS22      -0.2867
     14  CB       -26.6240    5.1660   31.8280 C.3    22  LYS22       0.0271
     15  CG       -27.1310    3.7280   31.6260 C.3    22  LYS22       0.0035
     16  CD       -26.5240    3.1330   30.3580 C.3    22  LYS22       0.0206
     17  CE       -27.0220    3.9420   29.1790 C.3    22  LYS22       0.1093
     18  NZ       -26.4450    3.5930   27.8910 N.3    22  LYS22      -0.1314
     19  N        -26.0850   10.3880   35.2580 N.3    24  GLY24      -0.1225
     20  CA       -26.5730   10.8500   36.5520 C.3    24  GLY24       0.1811
     21  C        -26.8840   12.3380   36.4890 C.2    24  GLY24       0.2280
     22  O        -26.3750   13.1320   37.2860 O.2    24  GLY24      -0.2866
     23  N        -29.9530   13.8060   36.8830 N.3    26  CYS26      -0.1221
     24  CA       -31.2510   14.1250   37.4690 C.3    26  CYS26       0.1808
     25  C        -31.3310   15.5920   37.8800 C.2    26  CYS26       0.2601
     26  O        -32.3740   16.2350   37.7130 O.2    26  CYS26      -0.2717
     27  CB       -31.5170   13.2370   38.6880 C.3    26  CYS26       0.0970
     28  SG       -30.2230   13.3210   39.9410 S.3    26  CYS26      -0.0800
     29  N        -30.2270   16.1260   38.3990 N.am   27  TRP27      -0.1976
     30  CA       -30.1860   17.5220   38.8400 C.3    27  TRP27       0.1640
     31  C        -30.5110   18.4740   37.6990 C.2    27  TRP27       0.2290
     32  O        -31.1790   19.4910   37.9010 O.2    27  TRP27      -0.2864
     33  CB       -28.8080   17.8720   39.4050 C.3    27  TRP27       0.0576
     34  CG       -27.6870   17.6150   38.4330 C.ar   27  TRP27       0.0006
     35  CD1      -27.0880   16.4130   38.1610 C.ar   27  TRP27       0.0946
     36  CD2      -27.0530   18.5800   37.5850 C.ar   27  TRP27       0.0152
     37  NE1      -26.1240   16.5720   37.1940 N.ar   27  TRP27      -0.2442
     38  CE2      -26.0860   17.8910   36.8170 C.ar   27  TRP27       0.0810
     39  CE3      -27.2220   19.9560   37.3860 C.ar   27  TRP27       0.0012
     40  CZ2      -25.2740   18.5390   35.8820 C.ar   27  TRP27       0.0191
     41  CZ3      -26.4140   20.6000   36.4520 C.ar   27  TRP27       0.0001
     42  CH2      -25.4590   19.8900   35.7090 C.ar   27  TRP27       0.0015
     43  N        -19.3210   23.7880   39.8060 N.3    61  ASP61      -0.1225
     44  CA       -19.4990   22.9580   40.9900 C.3    61  ASP61       0.1805
     45  C        -20.2430   21.6720   40.6570 C.2    61  ASP61       0.2598
     46  O        -20.0160   20.6420   41.2890 O.2    61  ASP61      -0.2718
     47  CB       -20.2470   23.7430   42.0660 C.3    61  ASP61       0.1424
     48  CG       -19.4660   24.9500   42.5380 C.2    61  ASP61       0.3668
     49  OD1      -18.4030   24.7580   43.1610 O.co2  61  ASP61      -0.2456
     50  OD2      -19.9060   26.0910   42.2740 O.co2  61  ASP61      -0.2456
     51  N        -21.1380   21.7280   39.6740 N.am   62  ASN62      -0.1960
     52  CA       -21.8600   20.5290   39.2750 C.3    62  ASN62       0.1819
     53  C        -20.9070   19.6840   38.4440 C.2    62  ASN62       0.2621
     54  O        -19.9930   20.2140   37.8010 O.2    62  ASN62      -0.2715
     55  CB       -23.1210   20.8750   38.4830 C.3    62  ASN62       0.1195
     56  CG       -24.2050   21.4660   39.3630 C.2    62  ASN62       0.2630
     57  OD1      -24.3630   21.0680   40.5150 O.2    62  ASN62      -0.2716
     58  ND2      -24.9660   22.4090   38.8210 N.am   62  ASN62      -0.0877
     59  N        -21.1260   18.3740   38.4520 N.am   63  ASP63      -0.1971
     60  CA       -20.2350   17.4580   37.7580 C.3    63  ASP63       0.1709
     61  C        -20.8710   16.5580   36.6940 C.2    63  ASP63       0.2293
     62  O        -20.7700   15.3320   36.7600 O.2    63  ASP63      -0.2864
     63  CB       -19.5200   16.6180   38.8220 C.3    63  ASP63       0.1436
     64  CG       -18.3510   15.8250   38.2720 C.2    63  ASP63       0.3671
     65  OD1      -17.6210   16.3370   37.3930 O.co2  63  ASP63      -0.2456
     66  OD2      -18.1520   14.6870   38.7460 O.co2  63  ASP63      -0.2456
     67  N        -22.5430   14.0630   34.3200 N.3    65  CYS65      -0.1221
     68  CA       -23.1820   12.7630   34.5180 C.3    65  CYS65       0.1808
     69  C        -22.8870   12.1230   35.8610 C.2    65  CYS65       0.2601
     70  O        -23.4830   11.1050   36.2100 O.2    65  CYS65      -0.2717
     71  CB       -22.7600   11.7880   33.4200 C.3    65  CYS65       0.0970
     72  SG       -23.2140   12.2840   31.7690 S.3    65  CYS65      -0.0800
     73  N        -21.9580   12.7010   36.6100 N.am   66  GLN66      -0.1965
     74  CA       -21.6290   12.1530   37.9080 C.3    66  GLN66       0.1733
     75  C        -22.4000   12.8250   39.0520 C.2    66  GLN66       0.2617
     76  O        -22.2210   12.4770   40.2200 O.2    66  GLN66      -0.2715
     77  CB       -20.1210   12.2300   38.1290 C.3    66  GLN66       0.0408
     78  CG       -19.3500   11.2790   37.2120 C.3    66  GLN66       0.0908
     79  CD       -19.5810    9.8320   37.5830 C.2    66  GLN66       0.2608
     80  OE1      -19.9960    9.0220   36.7530 O.2    66  GLN66      -0.2717
     81  NE2      -19.3160    9.4970   38.8410 N.am   66  GLN66      -0.0878
     82  N        -23.2710   13.7720   38.7170 N.am   67  GLY67      -0.1940
     83  CA       -24.0500   14.4320   39.7490 C.3    67  GLY67       0.2014
     84  C        -24.0230   15.9490   39.7470 C.2    67  GLY67       0.2639
     85  O        -23.2100   16.5780   39.0690 O.2    67  GLY67      -0.2714
     86  N        -24.9210   16.5360   40.5310 N.am   68  GLY68      -0.1939
     87  CA       -25.0000   17.9800   40.6100 C.3    68  GLY68       0.2014
     88  C        -26.0860   18.4390   41.5650 C.2    68  GLY68       0.2639
     89  O        -26.7290   17.6280   42.2480 O.2    68  GLY68      -0.2714
     90  N        -26.2940   19.7490   41.6080 N.am   69  LEU69      -0.1963
     91  CA       -27.2940   20.3490   42.4820 C.3    69  LEU69       0.1728
     92  C        -28.1280   21.3530   41.6980 C.2    69  LEU69       0.2616
     93  O        -27.5890   22.1290   40.9090 O.2    69  LEU69      -0.2715
     94  CB       -26.5960   21.0490   43.6500 C.3    69  LEU69       0.0311
     95  CG       -26.5370   20.4230   45.0490 C.3    69  LEU69       0.0022
     96  CD1      -26.9040   18.9510   45.0370 C.3    69  LEU69       0.0001
     97  CD2      -25.1310   20.6460   45.6010 C.3    69  LEU69       0.0001
     98  N        -29.4410   21.3360   41.9180 N.am   70  MET70      -0.1977
     99  CA       -30.3340   22.2580   41.2210 C.3    70  MET70       0.1605
    100  C        -30.0490   23.7230   41.5500 C.2    70  MET70       0.2287
    101  O        -30.1250   24.5770   40.6740 O.2    70  MET70      -0.2864
    102  CB       -31.8100   21.9580   41.5410 C.3    70  MET70       0.0413
    103  CG       -32.3350   20.6190   41.0240 C.3    70  MET70       0.0598
    104  SD       -31.7510   19.2080   41.9980 S.3    70  MET70      -0.1393
    105  CE       -32.9120   19.2100   43.4020 C.3    70  MET70       0.0692
    106  N        -27.2330   25.0690   42.2080 N.3    72  ASN72      -0.1240
    107  CA       -26.0350   25.4760   41.4780 C.3    72  ASN72       0.1653
    108  C        -26.4120   25.7640   40.0250 C.2    72  ASN72       0.2266
    109  O        -25.8710   26.6720   39.4010 O.2    72  ASN72      -0.2867
    110  CB       -24.9680   24.3760   41.4910 C.3    72  ASN72       0.1155
    111  CG       -24.2680   24.2610   42.8240 C.2    72  ASN72       0.2627
    112  OD1      -24.1110   25.2470   43.5360 O.2    72  ASN72      -0.2716
    113  ND2      -23.8270   23.0560   43.1610 N.am   72  ASN72      -0.0877
    114  N        -35.1200   17.3400   46.2290 N.3   139  ALA139     -0.1245
    115  CA       -34.2120   16.2000   46.3020 C.3   139  ALA139      0.1562
    116  C        -34.9110   15.1360   47.1360 C.2   139  ALA139      0.2260
    117  O        -35.6290   15.4580   48.0860 O.2   139  ALA139     -0.2867
    118  CB       -32.8990   16.6020   46.9570 C.3   139  ALA139      0.0290
    119  N        -30.5700   11.4580   50.5060 N.3   163  LEU163     -0.1231
    120  CA       -30.8280   12.1790   49.2630 C.3   163  LEU163      0.1693
    121  C        -29.8140   11.8500   48.1840 C.2   163  LEU163      0.2592
    122  O        -28.6120   11.9970   48.3850 O.2   163  LEU163     -0.2718
    123  CB       -30.8410   13.6860   49.5300 C.3   163  LEU163      0.0284
    124  CG       -31.7330   14.1010   50.7060 C.3   163  LEU163      0.0019
    125  CD1      -31.6730   15.6010   50.8820 C.3   163  LEU163      0.0001
    126  CD2      -33.1670   13.6560   50.4640 C.3   163  LEU163      0.0001
    127  N        -30.3060   11.4100   47.0320 N.am  164  ASP164     -0.1960
    128  CA       -29.4270   11.0430   45.9310 C.3   164  ASP164      0.1840
    129  C        -30.0670   11.2790   44.5770 C.2   164  ASP164      0.2622
    130  O        -29.4740   10.9600   43.5480 O.2   164  ASP164     -0.2715
    131  CB       -29.0760    9.5620   46.0270 C.3   164  ASP164      0.1450
    132  CG       -30.3100    8.6840   46.0870 C.2   164  ASP164      0.3671
    133  OD1      -31.3920    9.1250   45.6370 O.co2 164  ASP164     -0.2456
    134  OD2      -30.2070    7.5450   46.5800 O.co2 164  ASP164     -0.2456
    135  N        -31.2680   11.8430   44.5680 N.am  165  HIS165     -0.1959
    136  CA       -31.9720   12.0430   43.3100 C.3   165  HIS165      0.1787
    137  C        -32.7360   13.3590   43.2820 C.2   165  HIS165      0.2620
    138  O        -33.4500   13.7020   44.2320 O.2   165  HIS165     -0.2715
    139  CB       -32.9260   10.8620   43.1080 C.3   165  HIS165      0.0785
    140  CG       -33.5540   10.8010   41.7520 C.ar  165  HIS165      0.0821
    141  ND1      -32.8190   10.7640   40.5880 N.ar  165  HIS165     -0.2267
    142  CD2      -34.8530   10.7270   41.3790 C.ar  165  HIS165      0.1154
    143  CE1      -33.6370   10.6700   39.5550 C.ar  165  HIS165      0.1986
    144  NE2      -34.8760   10.6470   40.0090 N.ar  165  HIS165     -0.2212
    145  N        -32.5770   14.1000   42.1920 N.am  166  GLY166     -0.1954
    146  CA       -33.2680   15.3650   42.0630 C.3   166  GLY166      0.1869
    147  C        -34.4470   15.2400   41.1230 C.2   166  GLY166      0.2309
    148  O        -34.3080   14.7480   40.0040 O.2   166  GLY166     -0.2863
    149  N        -34.4380   19.8070   50.7770 N.3   216  GLU216     -0.1245
    150  CA       -33.6290   20.6840   49.9360 C.3   216  GLU216      0.1567
    151  C        -34.3810   21.1100   48.6830 C.2   216  GLU216      0.2260
    152  O        -33.9690   20.8030   47.5670 O.2   216  GLU216     -0.2867
    153  CB       -32.3310   19.9760   49.5320 C.3   216  GLU216      0.0388
    154  CG       -31.6120   19.2740   50.6770 C.3   216  GLU216      0.1160
    155  CD       -30.2050   18.8360   50.2970 C.2   216  GLU216      0.3649
    156  OE1      -30.0220   18.3160   49.1720 O.co2 216  GLU216     -0.2457
    157  OE2      -29.2800   18.9970   51.1220 O.co2 216  GLU216     -0.2457
@<TRIPOS>BOND
     1    18    17    1
     2    17    16    1
     3    16    15    1
     4     4     3    2
     5     3     2    1
     6    10    11    1
     7     1     2    1
     8    15    14    1
     9     2     5    1
    10    72    71    1
    11    14    11    1
    12    11    12    1
    13    12    13    2
    14     5     6    1
    15    71    68    1
    16     6     7    1
    17    67    68    1
    18    68    69    1
    19    19    20    1
    20     7     8    2
    21     7     9   am
    22    42    40   ar
    23    42    41   ar
    24    69    70    2
    25    69    73   am
    26    40    38   ar
    27    41    39   ar
    28    21    20    1
    29    21    22    2
    30    73    74    1
    31    61    62    2
    32    61    60    1
    33    80    79    2
    34    38    37   ar
    35    38    36   ar
    36    23    24    1
    37    37    35   ar
    38    78    79    1
    39    78    77    1
    40    39    36   ar
    41    65    64   ar
    42    24    25    1
    43    24    27    1
    44    79    81   am
    45    36    34   ar
    46    31    32    2
    47    31    30    1
    48    26    25    2
    49    60    59    1
    50    60    63    1
    51    54    53    2
    52    25    29   am
    53    74    77    1
    54    74    75    1
    55    35    34   ar
    56    64    66   ar
    57    64    63    1
    58    29    30    1
    59    34    33    1
    60    53    59   am
    61    53    52    1
    62    55    52    1
    63    55    56    1
    64    27    28    1
    65    82    75   am
    66    82    83    1
    67    58    56   am
    68    30    33    1
    69    75    76    2
    70    85    84    2
    71    52    51    1
    72    56    57    2
    73   109   108    2
    74   143   144   ar
    75   143   141   ar
    76    51    45   am
    77    84    83    1
    78    84    86   am
    79    43    44    1
    80   148   147    2
    81   144   142   ar
    82   108   107    1
    83    86    87    1
    84   141   140   ar
    85    87    88    1
    86    45    44    1
    87    45    46    2
    88   101   100    2
    89    93    92    2
    90    44    47    1
    91   103   102    1
    92   103   104    1
    93   147   146    1
    94    99   102    1
    95    99   100    1
    96    99    98    1
    97   142   140   ar
    98   107   110    1
    99   107   106    1
   100   110   111    1
   101    88    90   am
   102    88    89    2
   103    90    91    1
   104    92    98   am
   105    92    91    1
   106   140   139    1
   107   104   105    1
   108   146   145    1
   109    47    48    1
   110   145   137   am
   111    50    48   ar
   112    91    94    1
   113    48    49   ar
   114   111   113   am
   115   111   112    2
   116   139   136    1
   117   137   136    1
   118   137   138    2
   119   136   135    1
   120   130   129    2
   121    94    95    1
   122   135   129   am
   123   129   128    1
   124    96    95    1
   125    95    97    1
   126   133   132   ar
   127   128   131    1
   128   128   127    1
   129   131   132    1
   130   132   134   ar
   131   114   115    1
   132   115   118    1
   133   115   116    1
   134   127   121   am
   135   116   117    2
   136   152   151    2
   137   121   122    2
   138   121   120    1
   139   151   150    1
   140   156   155   ar
   141   120   123    1
   142   120   119    1
   143   123   124    1
   144   153   150    1
   145   153   154    1
   146   150   149    1
   147   155   154    1
   148   155   157   ar
   149   126   124    1
   150   124   125    1
