@<TRIPOS>MOLECULE
tmp/2foeA00.pdb
 83 81 0 0 0
SMALL
GASTEIGER

@<TRIPOS>ATOM
      1  N         48.1240   17.9060   41.8120 N.3    45  HIS45      -0.1241
      2  CA        47.6070   17.4720   40.5170 C.3    45  HIS45       0.1621
      3  C         48.2870   18.1480   39.3330 C.2    45  HIS45       0.2264
      4  O         48.1050   17.7380   38.1890 O.2    45  HIS45      -0.2867
      5  CB        46.0770   17.6350   40.4420 C.3    45  HIS45       0.0745
      6  CG        45.6130   19.0200   40.1060 C.ar   45  HIS45       0.0817
      7  ND1       45.0060   19.8450   41.0280 N.ar   45  HIS45      -0.2268
      8  CD2       45.6180   19.7030   38.9360 C.ar   45  HIS45       0.1154
      9  CE1       44.6520   20.9740   40.4400 C.ar   45  HIS45       0.1986
     10  NE2       45.0120   20.9130   39.1710 N.ar   45  HIS45      -0.2212
     11  N         38.6150   31.1350   39.8240 N.3   183  GLY183     -0.1210
     12  CA        39.8420   30.5850   39.2860 C.3   183  GLY183      0.1956
     13  C         39.3620   29.7600   38.1040 C.2   183  GLY183      0.2612
     14  O         38.1670   29.5170   37.9830 O.2   183  GLY183     -0.2717
     15  N         40.2620   29.3390   37.2260 N.am  184  CYS184     -0.1956
     16  CA        39.8660   28.5440   36.0630 C.3   184  CYS184      0.1843
     17  C         41.1050   27.7550   35.6510 C.2   184  CYS184      0.2625
     18  O         42.1990   28.0560   36.1290 O.2   184  CYS184     -0.2714
     19  CB        39.4030   29.4740   34.9300 C.3   184  CYS184      0.0997
     20  SG        38.2220   28.7840   33.7170 S.3   184  CYS184     -0.0797
     21  N         40.9420   26.7470   34.7970 N.am  185  GLN185     -0.1977
     22  CA        42.0790   25.9390   34.3620 C.3   185  GLN185      0.1601
     23  C         43.3030   26.8210   34.1000 C.2   185  GLN185      0.2287
     24  O         43.2120   27.8510   33.4260 O.2   185  GLN185     -0.2864
     25  CB        41.7310   25.1390   33.1000 C.3   185  GLN185      0.0394
     26  CG        40.7820   23.9450   33.3110 C.3   185  GLN185      0.0908
     27  CD        39.3430   24.3510   33.6080 C.2   185  GLN185      0.2608
     28  OE1       38.8390   25.3360   33.0730 O.2   185  GLN185     -0.2717
     29  NE2       38.6720   23.5760   34.4480 N.am  185  GLN185     -0.0878
     30  N         45.4590   26.6170   38.8440 N.3   188  SER188     -0.1217
     31  CA        45.7730   25.5860   39.8410 C.3   188  SER188      0.1889
     32  C         47.1920   25.6910   40.3550 C.2   188  SER188      0.2288
     33  O         48.1050   26.0120   39.6030 O.2   188  SER188     -0.2866
     34  CB        45.5950   24.1810   39.2610 C.3   188  SER188      0.2089
     35  OG        44.2420   23.9120   38.9810 O.3   188  SER188     -0.2183
     36  N         45.1850   26.9150   44.8830 N.3   206  THR206     -0.1203
     37  CA        44.0510   26.6150   44.0180 C.3   206  THR206      0.1994
     38  C         44.0050   25.1320   43.6340 C.2   206  THR206      0.2619
     39  O         44.9720   24.5920   43.0900 O.2   206  THR206     -0.2717
     40  CB        44.0960   27.4870   42.7570 C.3   206  THR206      0.1784
     41  OG1       44.3350   28.8530   43.1280 O.3   206  THR206     -0.2211
     42  CG2       42.7740   27.4150   42.0240 C.3   206  THR206      0.0376
     43  N         42.8790   24.4800   43.9200 N.am  207  SER207     -0.1937
     44  CA        42.7210   23.0570   43.6330 C.3   207  SER207      0.2055
     45  C         41.6820   22.7220   42.5540 C.2   207  SER207      0.2643
     46  O         42.0070   22.0520   41.5730 O.2   207  SER207     -0.2714
     47  CB        42.3880   22.3030   44.9280 C.3   207  SER207      0.2130
     48  OG        42.3190   20.9030   44.7140 O.3   207  SER207     -0.2179
     49  N         40.4360   23.1630   42.7230 N.am  208  PHE208     -0.1959
     50  CA        39.4350   22.8630   41.7040 C.3   208  PHE208      0.1771
     51  C         38.1930   23.7450   41.6470 C.2   208  PHE208      0.2619
     52  O         37.9400   24.5700   42.5330 O.2   208  PHE208     -0.2715
     53  CB        38.9930   21.3970   41.7990 C.3   208  PHE208      0.0574
     54  CG        38.2840   21.0480   43.0790 C.ar  208  PHE208     -0.0200
     55  CD1       38.9980   20.6090   44.1880 C.ar  208  PHE208     -0.0042
     56  CD2       36.8930   21.1220   43.1620 C.ar  208  PHE208     -0.0042
     57  CE1       38.3390   20.2400   45.3630 C.ar  208  PHE208     -0.0003
     58  CE2       36.2220   20.7570   44.3320 C.ar  208  PHE208     -0.0003
     59  CZ        36.9450   20.3130   45.4340 C.ar  208  PHE208     -0.0000
     60  N         37.4340   23.5580   40.5700 N.am  209  VAL209     -0.1963
     61  CA        36.1870   24.2740   40.3310 C.3   209  VAL209      0.1727
     62  C         35.1740   23.2690   39.7980 C.2   209  VAL209      0.2617
     63  O         35.4980   22.1010   39.5730 O.2   209  VAL209     -0.2715
     64  CB        36.3460   25.3910   39.2730 C.3   209  VAL209      0.0290
     65  CG1       37.2580   26.4870   39.7880 C.3   209  VAL209      0.0023
     66  CG2       36.8910   24.8030   37.9900 C.3   209  VAL209      0.0023
     67  N         33.9540   23.7390   39.5720 N.am  210  SER210     -0.1936
     68  CA        32.8770   22.8930   39.0730 C.3   210  SER210      0.2055
     69  C         33.0720   22.3620   37.6520 C.2   210  SER210      0.2642
     70  O         33.7370   22.9910   36.8250 O.2   210  SER210     -0.2714
     71  CB        31.5610   23.6640   39.1390 C.3   210  SER210      0.2130
     72  OG        30.5410   22.9760   38.4540 O.3   210  SER210     -0.2179
     73  N         32.4820   21.1960   37.3860 N.am  211  ARG211     -0.1977
     74  CA        32.5300   20.5630   36.0680 C.3   211  ARG211      0.1597
     75  C         31.6250   21.3610   35.1420 C.2   211  ARG211      0.2287
     76  O         31.8070   21.3600   33.9260 O.2   211  ARG211     -0.2864
     77  CB        32.0080   19.1260   36.1350 C.3   211  ARG211      0.0334
     78  CG        32.9580   18.1170   36.7550 C.3   211  ARG211      0.0492
     79  CD        32.1980   16.8710   37.1990 C.3   211  ARG211      0.2205
     80  NE        31.2490   16.4190   36.1840 N.pl3 211  ARG211     -0.0865
     81  CZ        30.2500   15.5740   36.4170 C.cat 211  ARG211      0.5346
     82  NH1       29.4370   15.2220   35.4310 N.pl3 211  ARG211      0.1354
     83  NH2       30.0590   15.0830   37.6370 N.pl3 211  ARG211      0.1354
@<TRIPOS>BOND
     1    28    27    2
     2    25    26    1
     3    25    22    1
     4    26    27    1
     5    24    23    2
     6    27    29   am
     7    20    19    1
     8    76    75    2
     9    23    22    1
    10    22    21    1
    11    21    17   am
    12    19    16    1
    13    75    74    1
    14    82    81    1
    15    17    16    1
    16    17    18    2
    17    16    15    1
    18    74    77    1
    19    74    73    1
    20    77    78    1
    21    80    81    2
    22    80    79    1
    23    81    83    1
    24    78    79    1
    25    70    69    2
    26    15    13   am
    27    73    69   am
    28    69    68    1
    29    14    13    2
    30    66    64    1
    31    13    12    1
    32     4     3    2
    33    72    71    1
    34    30    31    1
    35     8    10   ar
    36     8     6   ar
    37    35    34    1
    38    68    71    1
    39    68    67    1
    40    10     9   ar
    41    34    31    1
    42    64    65    1
    43    64    61    1
    44    12    11    1
    45     3     2    1
    46    67    62   am
    47    63    62    2
    48    33    32    2
    49    62    61    1
    50    31    32    1
    51     6     5    1
    52     6     7   ar
    53    61    60    1
    54     9     7   ar
    55     5     2    1
    56     2     1    1
    57    60    51   am
    58    46    45    2
    59    51    50    1
    60    51    52    2
    61    50    53    1
    62    50    49    1
    63    53    54    1
    64    42    40    1
    65    45    49   am
    66    45    44    1
    67    40    41    1
    68    40    37    1
    69    54    56   ar
    70    54    55   ar
    71    39    38    2
    72    56    58   ar
    73    44    43    1
    74    44    47    1
    75    38    43   am
    76    38    37    1
    77    37    36    1
    78    55    57   ar
    79    58    59   ar
    80    48    47    1
    81    57    59   ar
