@<TRIPOS>MOLECULE
tmp/2foeA01.pdb
 109 105 0 0 0
SMALL
GASTEIGER

@<TRIPOS>ATOM
      1  N         55.8490   25.5770   34.2430 N.3    19  GLN19      -0.1245
      2  CA        55.7860   25.1960   32.8370 C.3    19  GLN19       0.1566
      3  C         56.4190   23.8440   32.5140 C.2    19  GLN19       0.2260
      4  O         57.3080   23.3710   33.2210 O.2    19  GLN19      -0.2867
      5  CB        56.4590   26.2860   31.9980 C.3    19  GLN19       0.0367
      6  CG        55.7690   27.6410   32.0960 C.3    19  GLN19       0.0905
      7  CD        56.6080   28.7800   31.5450 C.2    19  GLN19       0.2608
      8  OE1       57.5440   28.5650   30.7710 O.2    19  GLN19      -0.2717
      9  NE2       56.2680   30.0050   31.9340 N.am   19  GLN19      -0.0878
     10  N         59.2850   23.3540   22.8510 N.3    25  SER25      -0.1202
     11  CA        58.8280   24.5990   23.4560 C.3    25  SER25       0.2020
     12  C         58.2400   24.3830   24.8470 C.2    25  SER25       0.2619
     13  O         57.9520   23.2530   25.2410 O.2    25  SER25      -0.2717
     14  CB        57.7890   25.2610   22.5500 C.3    25  SER25       0.2103
     15  OG        57.5300   26.5910   22.9620 O.3    25  SER25      -0.2182
     16  N         58.0720   25.4740   25.5890 N.am   26  TRP26      -0.1961
     17  CA        57.5110   25.4090   26.9370 C.3    26  TRP26       0.1771
     18  C         56.1000   25.9890   26.9830 C.2    26  TRP26       0.2619
     19  O         55.7950   26.9650   26.2950 O.2    26  TRP26      -0.2715
     20  CB        58.3940   26.1700   27.9270 C.3    26  TRP26       0.0590
     21  CG        59.7840   25.6330   28.0460 C.ar   26  TRP26       0.0006
     22  CD1       60.8600   25.9630   27.2730 C.ar   26  TRP26       0.0946
     23  CD2       60.2510   24.6650   28.9950 C.ar   26  TRP26       0.0152
     24  NE1       61.9700   25.2640   27.6840 N.ar   26  TRP26      -0.2442
     25  CE2       61.6250   24.4600   28.7400 C.ar   26  TRP26       0.0810
     26  CE3       59.6410   23.9510   30.0380 C.ar   26  TRP26       0.0012
     27  CZ2       62.4040   23.5690   29.4920 C.ar   26  TRP26       0.0191
     28  CZ3       60.4180   23.0630   30.7880 C.ar   26  TRP26       0.0001
     29  CH2       61.7850   22.8820   30.5090 C.ar   26  TRP26       0.0015
     30  N         55.2480   25.3870   27.8050 N.am   27  ALA27      -0.1963
     31  CA        53.8700   25.8290   27.9430 C.3    27  ALA27       0.1728
     32  C         53.4410   25.9230   29.4060 C.2    27  ALA27       0.2616
     33  O         53.6930   25.0160   30.2050 O.2    27  ALA27      -0.2715
     34  CB        52.9480   24.8830   27.1940 C.3    27  ALA27       0.0334
     35  N         52.7910   27.0320   29.7470 N.am   28  HIS28      -0.1973
     36  CA        52.3030   27.2660   31.0970 C.3    28  HIS28       0.1656
     37  C         51.2270   26.2320   31.4170 C.2    28  HIS28       0.2291
     38  O         50.3910   25.9250   30.5670 O.2    28  HIS28      -0.2864
     39  CB        51.7040   28.6710   31.1990 C.3    28  HIS28       0.0771
     40  CG        51.0180   28.9420   32.5030 C.ar   28  HIS28       0.0820
     41  ND1       51.6790   29.4460   33.6020 N.ar   28  HIS28      -0.2267
     42  CD2       49.7370   28.7410   32.8940 C.ar   28  HIS28       0.1154
     43  CE1       50.8340   29.5450   34.6140 C.ar   28  HIS28       0.1986
     44  NE2       49.6490   29.1220   34.2100 N.ar   28  HIS28      -0.2212
     45  N         59.7520   23.3620   34.7060 N.3    54  ARG54      -0.1245
     46  CA        60.6390   24.4820   35.0040 C.3    54  ARG54       0.1563
     47  C         59.7730   25.5640   35.6370 C.2    54  ARG54       0.2260
     48  O         58.5680   25.6370   35.3840 O.2    54  ARG54      -0.2867
     49  CB        61.3230   25.0320   33.7490 C.3    54  ARG54       0.0307
     50  CG        60.4580   25.9320   32.8890 C.3    54  ARG54       0.0489
     51  CD        61.2860   26.6320   31.8290 C.3    54  ARG54       0.2205
     52  NE        60.4630   27.4680   30.9620 N.pl3  54  ARG54      -0.0865
     53  CZ        60.9490   28.2870   30.0340 C.cat  54  ARG54       0.5346
     54  NH1       60.1240   29.0120   29.2890 N.pl3  54  ARG54       0.1354
     55  NH2       62.2610   28.3860   29.8520 N.pl3  54  ARG54       0.1354
     56  N         57.8290   36.9000   36.6250 N.3    59  GLU59      -0.1245
     57  CA        57.0920   36.9360   35.3730 C.3    59  GLU59       0.1567
     58  C         55.8430   37.8040   35.4840 C.2    59  GLU59       0.2260
     59  O         55.2700   37.9400   36.5610 O.2    59  GLU59      -0.2867
     60  CB        56.7040   35.4980   34.9890 C.3    59  GLU59       0.0388
     61  CG        55.9300   35.3380   33.6890 C.3    59  GLU59       0.1160
     62  CD        56.7710   35.6340   32.4650 C.2    59  GLU59       0.3649
     63  OE1       57.2090   36.7940   32.3130 O.co2  59  GLU59      -0.2457
     64  OE2       56.9970   34.7070   31.6560 O.co2  59  GLU59      -0.2457
     65  N         53.4890   36.3870   29.8750 N.3    62  LEU62      -0.1231
     66  CA        54.0050   35.1040   29.4060 C.3    62  LEU62       0.1693
     67  C         54.6570   35.1000   28.0280 C.2    62  LEU62       0.2592
     68  O         55.6090   34.3560   27.8010 O.2    62  LEU62      -0.2718
     69  CB        52.8890   34.0530   29.4220 C.3    62  LEU62       0.0284
     70  CG        52.2660   33.6850   30.7710 C.3    62  LEU62       0.0019
     71  CD1       51.1890   32.6190   30.5620 C.3    62  LEU62       0.0001
     72  CD2       53.3450   33.1750   31.7140 C.3    62  LEU62       0.0001
     73  N         54.1580   35.9260   27.1120 N.am   63  ASN63      -0.1974
     74  CA        54.6920   35.9610   25.7520 C.3    63  ASN63       0.1688
     75  C         55.6740   37.0890   25.4580 C.2    63  ASN63       0.2292
     76  O         56.2540   37.1400   24.3720 O.2    63  ASN63      -0.2864
     77  CB        53.5390   36.0410   24.7440 C.3    63  ASN63       0.1181
     78  CG        52.5330   34.9190   24.9180 C.2    63  ASN63       0.2629
     79  OD1       52.8670   33.7390   24.7800 O.2    63  ASN63      -0.2716
     80  ND2       51.2910   35.2820   25.2260 N.am   63  ASN63      -0.0877
     81  N         64.6380   31.8900   35.0230 N.3    71  TYR71      -0.1241
     82  CA        64.2020   30.5370   34.6960 C.3    71  TYR71       0.1605
     83  C         65.0820   29.5230   35.4100 C.2    71  TYR71       0.2264
     84  O         66.3060   29.5520   35.2910 O.2    71  TYR71      -0.2867
     85  CB        64.2650   30.3020   33.1820 C.3    71  TYR71       0.0534
     86  CG        63.4930   31.3160   32.3600 C.ar   71  TYR71      -0.0201
     87  CD1       63.9760   32.6100   32.1760 C.ar   71  TYR71      -0.0009
     88  CD2       62.2740   30.9810   31.7690 C.ar   71  TYR71      -0.0009
     89  CE1       63.2670   33.5450   31.4230 C.ar   71  TYR71       0.0417
     90  CE2       61.5560   31.9060   31.0180 C.ar   71  TYR71       0.0417
     91  CZ        62.0570   33.1840   30.8490 C.ar   71  TYR71       0.1957
     92  OH        61.3480   34.1030   30.1060 O.3    71  TYR71      -0.2866
     93  N         44.1400   31.1030   27.9520 N.3   141  LEU141     -0.1245
     94  CA        45.0070   31.6100   29.0070 C.3   141  LEU141      0.1561
     95  C         45.1800   33.1130   28.8890 C.2   141  LEU141      0.2260
     96  O         45.0030   33.6860   27.8170 O.2   141  LEU141     -0.2867
     97  CB        46.3880   30.9560   28.9230 C.3   141  LEU141      0.0270
     98  CG        46.5070   29.4430   29.1320 C.3   141  LEU141      0.0019
     99  CD1       47.9150   29.0110   28.7640 C.3   141  LEU141      0.0001
    100  CD2       46.1840   29.0740   30.5870 C.3   141  LEU141      0.0001
    101  N         47.5270   36.4440   28.9270 N.3   143  GLN143     -0.1245
    102  CA        48.9060   36.7890   28.5930 C.3   143  GLN143      0.1566
    103  C         49.5630   37.4740   29.7820 C.2   143  GLN143      0.2260
    104  O         50.7420   37.2540   30.0690 O.2   143  GLN143     -0.2867
    105  CB        48.9400   37.7310   27.3860 C.3   143  GLN143      0.0367
    106  CG        48.6540   37.0780   26.0300 C.3   143  GLN143      0.0905
    107  CD        47.9550   35.7310   26.1390 C.2   143  GLN143      0.2608
    108  OE1       48.5700   34.7280   26.5140 O.2   143  GLN143     -0.2717
    109  NE2       46.6620   35.7020   25.8120 N.am  143  GLN143     -0.0878
@<TRIPOS>BOND
     1    14    15    1
     2    14    11    1
     3    10    11    1
     4    11    12    1
     5    76    75    2
     6    77    78    1
     7    77    74    1
     8    79    78    2
     9    12    13    2
    10    12    16   am
    11    78    80   am
    12    75    74    1
    13    16    17    1
    14    74    73    1
    15   109   107   am
    16   106   107    1
    17   106   105    1
    18   107   108    2
    19    19    18    2
    20    17    18    1
    21    17    20    1
    22    18    30   am
    23    73    67   am
    24    34    31    1
    25    22    24   ar
    26    22    21   ar
    27   105   102    1
    28    24    25   ar
    29    68    67    2
    30    30    31    1
    31    96    95    2
    32    20    21    1
    33    31    32    1
    34    93    94    1
    35    67    66    1
    36    21    23   ar
    37   102   101    1
    38   102   103    1
    39    25    23   ar
    40    25    27   ar
    41    99    98    1
    42    95    94    1
    43    97    94    1
    44    97    98    1
    45    23    26   ar
    46    98   100    1
    47    54    53    1
    48    32    35   am
    49    32    33    2
    50    66    69    1
    51    66    65    1
    52    69    70    1
    53    27    29   ar
    54    35    36    1
    55   103   104    2
    56    55    53    1
    57    53    52    2
    58    26    28   ar
    59    92    91    1
    60    29    28   ar
    61    71    70    1
    62    38    37    2
    63     8     7    2
    64    70    72    1
    65    91    90   ar
    66    91    89   ar
    67    52    51    1
    68    90    88   ar
    69    36    39    1
    70    36    37    1
    71    39    40    1
    72    89    87   ar
    73     7     9   am
    74     7     6    1
    75    64    62   ar
    76    88    86   ar
    77    51    50    1
    78     5     6    1
    79     5     2    1
    80    87    86   ar
    81    63    62   ar
    82    86    85    1
    83    62    61    1
    84    40    42   ar
    85    40    41   ar
    86     3     2    1
    87     3     4    2
    88     2     1    1
    89    50    49    1
    90    42    44   ar
    91    85    82    1
    92    41    43   ar
    93    61    60    1
    94    49    46    1
    95    44    43   ar
    96    82    81    1
    97    82    83    1
    98    45    46    1
    99    60    57    1
   100    46    47    1
   101    84    83    2
   102    57    58    1
   103    57    56    1
   104    48    47    2
   105    58    59    2
