@<TRIPOS>MOLECULE
tmp/2foiA01.pdb
 136 128 0 0 0
SMALL
GASTEIGER

@<TRIPOS>ATOM
      1  N         46.6540   84.2590   36.5510 N.3   120  LEU120     -0.1231
      2  CA        48.0520   84.1050   36.3370 C.3   120  LEU120      0.1693
      3  C         48.2850   84.4790   34.9130 C.2   120  LEU120      0.2592
      4  O         47.3710   84.4170   34.0960 O.2   120  LEU120     -0.2718
      5  CB        48.4450   82.6500   36.5590 C.3   120  LEU120      0.0284
      6  CG        47.7280   81.6450   35.6580 C.3   120  LEU120      0.0019
      7  CD1       48.4900   81.4530   34.3670 C.3   120  LEU120      0.0001
      8  CD2       47.5570   80.3360   36.3940 C.3   120  LEU120      0.0001
      9  N         49.5140   84.8980   34.6310 N.am  121  ALA121     -0.1966
     10  CA        49.9480   85.1650   33.2780 C.3   121  ALA121      0.1728
     11  C         51.4670   85.0870   33.2440 C.2   121  ALA121      0.2616
     12  O         52.1220   85.2020   34.2710 O.2   121  ALA121     -0.2715
     13  CB        49.4790   86.5320   32.8370 C.3   121  ALA121      0.0334
     14  N         52.0210   84.8910   32.0570 N.am  122  ASN122     -0.1958
     15  CA        53.4570   84.8560   31.8850 C.3   122  ASN122      0.1819
     16  C         53.8080   84.9900   30.4100 C.2   122  ASN122      0.2621
     17  O         53.0400   84.6030   29.5280 O.2   122  ASN122     -0.2715
     18  CB        54.0510   83.5710   32.4670 C.3   122  ASN122      0.1195
     19  CG        55.4290   83.7870   33.0810 C.2   122  ASN122      0.2630
     20  OD1       55.8340   83.0530   33.9880 O.2   122  ASN122     -0.2716
     21  ND2       56.1520   84.7950   32.5950 N.am  122  ASN122     -0.0877
     22  N         54.9770   85.5640   30.1670 N.am  123  ALA123     -0.1977
     23  CA        55.4670   85.8120   28.8320 C.3   123  ALA123      0.1597
     24  C         56.9410   86.0970   29.0110 C.2   123  ALA123      0.2287
     25  O         57.3200   87.1410   29.5550 O.2   123  ALA123     -0.2864
     26  CB        54.7590   87.0250   28.2200 C.3   123  ALA123      0.0319
     27  N         58.1530   89.6920   27.6470 N.3   126  VAL126     -0.1245
     28  CA        57.3230   90.8630   27.9170 C.3   126  VAL126      0.1561
     29  C         58.1190   92.1770   27.8310 C.2   126  VAL126      0.2260
     30  O         57.5620   93.2390   27.5370 O.2   126  VAL126     -0.2867
     31  CB        56.5790   90.7140   29.2890 C.3   126  VAL126      0.0252
     32  CG1       57.5460   90.2660   30.4050 C.3   126  VAL126      0.0019
     33  CG2       55.8220   92.0020   29.6660 C.3   126  VAL126      0.0019
     34  N         42.0510   90.0780   32.9490 N.3   170  THR170     -0.1203
     35  CA        42.6260   90.5310   31.6960 C.3   170  THR170      0.1994
     36  C         43.0300   92.0040   31.8100 C.2   170  THR170      0.2617
     37  O         42.8810   92.6020   32.8720 O.2   170  THR170     -0.2717
     38  CB        41.6570   90.3030   30.5340 C.3   170  THR170      0.1784
     39  OG1       42.2770   90.6890   29.2950 O.3   170  THR170     -0.2211
     40  CG2       40.3860   91.0980   30.7580 C.3   170  THR170      0.0376
     41  N         43.5560   92.5810   30.7310 N.am  171  TYR171     -0.1975
     42  CA        43.9870   93.9540   30.7730 C.3   171  TYR171      0.1639
     43  C         43.6060   94.6490   29.4480 C.2   171  TYR171      0.2290
     44  O         43.6520   94.0420   28.3690 O.2   171  TYR171     -0.2864
     45  CB        45.4990   94.0270   31.1060 C.3   171  TYR171      0.0560
     46  CG        46.0430   95.4350   31.1840 C.ar  171  TYR171     -0.0198
     47  CD1       45.5030   96.3480   32.0860 C.ar  171  TYR171     -0.0009
     48  CD2       47.0650   95.8620   30.3410 C.ar  171  TYR171     -0.0009
     49  CE1       45.9610   97.6640   32.1510 C.ar  171  TYR171      0.0417
     50  CE2       47.5460   97.1830   30.3930 C.ar  171  TYR171      0.0417
     51  CZ        46.9800   98.0810   31.3020 C.ar  171  TYR171      0.1957
     52  OH        47.4070   99.4030   31.3720 O.3   171  TYR171     -0.2866
     53  N         48.7460   99.6800   24.6840 N.3   178  VAL178     -0.1245
     54  CA        49.6110  100.2340   25.6950 C.3   178  VAL178      0.1561
     55  C         51.0390   99.7870   25.4280 C.2   178  VAL178      0.2260
     56  O         51.3860   98.6170   25.6320 O.2   178  VAL178     -0.2867
     57  CB        49.1210  100.0430   27.1720 C.3   178  VAL178      0.0252
     58  CG1       47.8240   99.2570   27.2650 C.3   178  VAL178      0.0019
     59  CG2       50.2450   99.5300   28.1010 C.3   178  VAL178      0.0019
     60  N         53.5830   96.9570   27.1080 N.3   181  TYR181     -0.1241
     61  CA        52.9350   95.7090   27.4360 C.3   181  TYR181      0.1605
     62  C         53.2690   94.7440   26.3180 C.2   181  TYR181      0.2264
     63  O         52.4150   94.4180   25.5070 O.2   181  TYR181     -0.2867
     64  CB        51.4260   95.9170   27.5850 C.3   181  TYR181      0.0534
     65  CG        50.6760   94.8380   28.3540 C.ar  181  TYR181     -0.0201
     66  CD1       50.7970   94.7170   29.7320 C.ar  181  TYR181     -0.0009
     67  CD2       49.8120   93.9760   27.6990 C.ar  181  TYR181     -0.0009
     68  CE1       50.0860   93.7460   30.4350 C.ar  181  TYR181      0.0417
     69  CE2       49.1220   93.0080   28.3740 C.ar  181  TYR181      0.0417
     70  CZ        49.2470   92.8860   29.7440 C.ar  181  TYR181      0.1957
     71  OH        48.5250   91.8880   30.4160 O.3   181  TYR181     -0.2866
     72  N         51.9150   89.6610   25.3320 N.3   185  MET185     -0.1245
     73  CA        50.9520   89.6570   26.4290 C.3   185  MET185      0.1570
     74  C         49.6180   90.2890   25.9790 C.2   185  MET185      0.2261
     75  O         48.5400   89.7370   26.2520 O.2   185  MET185     -0.2867
     76  CB        51.5150   90.3560   27.6790 C.3   185  MET185      0.0387
     77  CG        52.2070   89.4090   28.6400 C.3   185  MET185      0.0595
     78  SD        51.0410   88.1250   29.1230 S.3   185  MET185     -0.1393
     79  CE        49.8050   89.1110   29.9380 C.3   185  MET185      0.0692
     80  N         46.0220   88.4690   25.9640 N.3   189  LYS189     -0.1245
     81  CA        44.8070   88.9570   26.5870 C.3   189  LYS189      0.1561
     82  C         43.6870   89.0830   25.5500 C.2   189  LYS189      0.2260
     83  O         42.5380   88.7560   25.8220 O.2   189  LYS189     -0.2867
     84  CB        45.0520   90.2870   27.3230 C.3   189  LYS189      0.0271
     85  CG        45.9790   90.2080   28.5380 C.3   189  LYS189      0.0035
     86  CD        45.5820   89.0800   29.4960 C.3   189  LYS189      0.0206
     87  CE        46.2920   89.2760   30.8470 C.3   189  LYS189      0.1093
     88  NZ        45.9350   88.3010   31.9290 N.3   189  LYS189     -0.1314
     89  N         42.4530   97.2780   36.3660 N.3   217  GLY217     -0.1210
     90  CA        43.3510   98.3900   36.1550 C.3   217  GLY217      0.1940
     91  C         44.5450   98.0370   36.9940 C.2   217  GLY217      0.2454
     92  O         44.5850   96.9450   37.5650 O.2   217  GLY217     -0.2732
     93  N         45.5130   98.9560   37.0980 N.am  218  PRO218     -0.2717
     94  CA        46.8580   98.5370   37.5170 C.3   218  PRO218      0.1535
     95  C         47.0220   98.4370   39.0110 C.2   218  PRO218      0.2598
     96  O         46.5090   99.2660   39.7650 O.2   218  PRO218     -0.2715
     97  CB        47.7790   99.6220   36.9560 C.3   218  PRO218      0.0310
     98  CG        46.8860  100.8480   36.7540 C.3   218  PRO218      0.0237
     99  CD        45.4240  100.4030   36.8430 C.3   218  PRO218      0.0939
    100  N         47.7310   97.3920   39.4080 N.am  219  LEU219     -0.1978
    101  CA        48.1000   97.1280   40.7760 C.3   219  LEU219      0.1596
    102  C         49.5790   96.7090   40.7890 C.2   219  LEU219      0.2287
    103  O         50.0510   95.9680   39.9040 O.2   219  LEU219     -0.2864
    104  CB        47.2350   95.9920   41.3140 C.3   219  LEU219      0.0297
    105  CG        47.5060   95.4550   42.7160 C.3   219  LEU219      0.0022
    106  CD1       47.0610   96.4740   43.7880 C.3   219  LEU219      0.0001
    107  CD2       46.7920   94.1320   42.8760 C.3   219  LEU219      0.0001
    108  N         51.7760   94.4190   41.7130 N.3   221  SER221     -0.1217
    109  CA        52.0170   93.0510   42.1480 C.3   221  SER221      0.1889
    110  C         53.4100   92.6300   41.6950 C.2   221  SER221      0.2288
    111  O         54.0960   93.4070   41.0200 O.2   221  SER221     -0.2866
    112  CB        50.9830   92.1430   41.5170 C.3   221  SER221      0.2089
    113  OG        50.9710   92.3520   40.1180 O.3   221  SER221     -0.2183
    114  N         54.3170   90.4020   39.3360 N.3   223  ALA223     -0.1231
    115  CA        54.4280   90.3170   37.8640 C.3   223  ALA223      0.1694
    116  C         54.4140   91.6960   37.1970 C.2   223  ALA223      0.2591
    117  O         55.1410   91.9430   36.2250 O.2   223  ALA223     -0.2718
    118  CB        53.3460   89.4110   37.2740 C.3   223  ALA223      0.0304
    119  N         53.5860   92.5910   37.7300 N.am  224  ALA224     -0.1980
    120  CA        53.5510   93.9640   37.2620 C.3   224  ALA224      0.1597
    121  C         54.9340   94.6110   37.3630 C.2   224  ALA224      0.2287
    122  O         55.3900   95.2330   36.4090 O.2   224  ALA224     -0.2864
    123  CB        52.5300   94.7650   38.0510 C.3   224  ALA224      0.0319
    124  N         57.6520   93.1610   37.3300 N.3   226  ALA226     -0.1231
    125  CA        58.5590   92.4210   36.4660 C.3   226  ALA226      0.1694
    126  C         58.4460   92.8980   35.0270 C.2   226  ALA226      0.2591
    127  O         59.3100   92.6080   34.2110 O.2   226  ALA226     -0.2718
    128  CB        58.2990   90.9270   36.5650 C.3   226  ALA226      0.0304
    129  N         57.3930   93.6450   34.7130 N.am  227  ILE227     -0.1980
    130  CA        57.2540   94.1860   33.3600 C.3   227  ILE227      0.1595
    131  C         58.4680   95.0390   32.9960 C.2   227  ILE227      0.2287
    132  O         59.3520   94.5890   32.2550 O.2   227  ILE227     -0.2864
    133  CB        55.9660   94.9990   33.1810 C.3   227  ILE227      0.0276
    134  CG1       54.7510   94.1060   33.4090 C.3   227  ILE227      0.0022
    135  CG2       55.9190   95.5910   31.7860 C.3   227  ILE227      0.0022
    136  CD1       53.4340   94.8210   33.3230 C.3   227  ILE227      0.0001
@<TRIPOS>BOND
     1    53    54    1
     2    72    73    1
     3    55    56    2
     4    55    54    1
     5    63    62    2
     6    82    83    2
     7    82    81    1
     8    54    57    1
     9    80    81    1
    10    74    75    2
    11    74    73    1
    12    62    61    1
    13    73    76    1
    14    81    84    1
    15    60    61    1
    16    57    58    1
    17    57    59    1
    18    84    85    1
    19    61    64    1
    20    30    29    2
    21    64    65    1
    22    27    28    1
    23    76    77    1
    24    67    65   ar
    25    67    69   ar
    26    29    28    1
    27    28    31    1
    28    26    23    1
    29    65    66   ar
    30    44    43    2
    31    69    70   ar
    32    85    86    1
    33    77    78    1
    34    23    24    1
    35    23    22    1
    36    24    25    2
    37    78    79    1
    38    31    33    1
    39    31    32    1
    40    39    38    1
    41    43    42    1
    42    86    87    1
    43    17    16    2
    44    66    68   ar
    45    70    71    1
    46    70    68   ar
    47    22    16   am
    48    48    50   ar
    49    48    46   ar
    50    50    51   ar
    51    16    15    1
    52    38    40    1
    53    38    35    1
    54    41    42    1
    55    41    36   am
    56    42    45    1
    57    87    88    1
    58    45    46    1
    59    46    47   ar
    60    51    52    1
    61    51    49   ar
    62    35    36    1
    63    35    34    1
    64   135   133    1
    65    36    37    2
    66    15    14    1
    67    15    18    1
    68    14    11   am
    69    47    49   ar
    70   132   131    2
    71    18    19    1
    72    21    19   am
    73    13    10    1
    74   131   130    1
    75    19    20    2
    76   133   130    1
    77   133   134    1
    78    11    10    1
    79    11    12    2
    80    10     9    1
    81   136   134    1
    82   130   129    1
    83     4     3    2
    84   127   126    2
    85     7     6    1
    86     9     3   am
    87   129   126   am
    88     3     2    1
    89   126   125    1
    90     6     8    1
    91     6     5    1
    92    90    89    1
    93    90    91    1
    94   117   116    2
    95     2     1    1
    96     2     5    1
    97   122   121    2
    98   125   128    1
    99   125   124    1
   100    98    99    1
   101    98    97    1
   102    99    93    1
   103    97    94    1
   104    91    93   am
   105    91    92    2
   106    93    94    1
   107   116   119   am
   108   116   115    1
   109   120   121    1
   110   120   119    1
   111   120   123    1
   112   118   115    1
   113    94    95    1
   114   115   114    1
   115    95   100   am
   116    95    96    2
   117   100   101    1
   118   103   102    2
   119   113   112    1
   120   101   102    1
   121   101   104    1
   122   111   110    2
   123   104   105    1
   124   112   109    1
   125   110   109    1
   126   108   109    1
   127   105   107    1
   128   105   106    1
