@<TRIPOS>MOLECULE
tmp/2fojA00.pdb
 154 152 0 0 0
SMALL
GASTEIGER

@<TRIPOS>ATOM
      1  N         32.0680  -10.1700  -19.9570 N.3    38  MET38      -0.1245
      2  CA        33.3100  -10.8910  -20.1740 C.3    38  MET38       0.1570
      3  C         33.0150  -12.3750  -20.0350 C.2    38  MET38       0.2261
      4  O         32.4940  -12.8190  -19.0130 O.2    38  MET38      -0.2867
      5  CB        34.3460  -10.4500  -19.1340 C.3    38  MET38       0.0387
      6  CG        35.7160  -11.0730  -19.2850 C.3    38  MET38       0.0595
      7  SD        36.8050  -10.6120  -17.9050 S.3    38  MET38      -0.1393
      8  CE        37.7480   -9.2970  -18.6350 C.3    38  MET38       0.0692
      9  N         34.6500  -16.3930  -20.6910 N.3    40  MET40      -0.1245
     10  CA        35.8550  -17.1650  -20.9500 C.3    40  MET40       0.1570
     11  C         35.7110  -18.5880  -20.4400 C.2    40  MET40       0.2261
     12  O         35.0390  -18.8310  -19.4410 O.2    40  MET40      -0.2867
     13  CB        37.0480  -16.5150  -20.2450 C.3    40  MET40       0.0387
     14  CG        36.8840  -16.4570  -18.7240 C.3    40  MET40       0.0595
     15  SD        38.1660  -15.5030  -17.9180 S.3    40  MET40      -0.1393
     16  CE        37.3900  -13.8980  -17.8510 C.3    40  MET40       0.0692
     17  N         36.6670  -21.8270  -18.4260 N.3    42  ARG42      -0.1245
     18  CA        37.4430  -22.0260  -17.2090 C.3    42  ARG42       0.1563
     19  C         37.4840  -23.5080  -16.8540 C.2    42  ARG42       0.2260
     20  O         36.6420  -24.2870  -17.3080 O.2    42  ARG42      -0.2867
     21  CB        36.8400  -21.2130  -16.0550 C.3    42  ARG42       0.0307
     22  CG        36.9020  -19.6960  -16.2660 C.3    42  ARG42       0.0489
     23  CD        38.3460  -19.1960  -16.3120 C.3    42  ARG42       0.2205
     24  NE        38.9630  -19.1500  -14.9880 N.pl3  42  ARG42      -0.0865
     25  CZ        38.9050  -18.1030  -14.1680 C.cat  42  ARG42       0.5346
     26  NH1       38.2580  -17.0030  -14.5300 N.pl3  42  ARG42       0.1354
     27  NH2       39.4930  -18.1540  -12.9800 N.pl3  42  ARG42       0.1354
     28  N         31.7500  -12.7060  -16.3190 N.3    50  PHE50      -0.1241
     29  CA        32.0100  -11.5640  -15.4410 C.3    50  PHE50       0.1605
     30  C         31.4960  -10.2440  -15.9880 C.2    50  PHE50       0.2264
     31  O         31.2990  -10.0960  -17.1910 O.2    50  PHE50      -0.2867
     32  CB        33.5190  -11.4030  -15.1970 C.3    50  PHE50       0.0534
     33  CG        34.1940  -12.6370  -14.6600 C.ar   50  PHE50      -0.0203
     34  CD1       34.4220  -13.7380  -15.4840 C.ar   50  PHE50      -0.0042
     35  CD2       34.6090  -12.6930  -13.3320 C.ar   50  PHE50      -0.0042
     36  CE1       35.0550  -14.8770  -14.9920 C.ar   50  PHE50      -0.0003
     37  CE2       35.2400  -13.8290  -12.8290 C.ar   50  PHE50      -0.0003
     38  CZ        35.4640  -14.9220  -13.6600 C.ar   50  PHE50      -0.0000
     39  N         19.4320  -19.0620  -16.6930 N.3    82  PHE82      -0.1227
     40  CA        20.1320  -19.1880  -15.4240 C.3    82  PHE82       0.1736
     41  C         20.8360  -17.9000  -15.0370 C.2    82  PHE82       0.2596
     42  O         21.6020  -17.3410  -15.8230 O.2    82  PHE82      -0.2718
     43  CB        21.1550  -20.3180  -15.4790 C.3    82  PHE82       0.0547
     44  CG        21.8250  -20.5710  -14.1610 C.ar   82  PHE82      -0.0202
     45  CD1       21.0830  -21.0140  -13.0670 C.ar   82  PHE82      -0.0042
     46  CD2       23.1820  -20.3270  -13.9950 C.ar   82  PHE82      -0.0042
     47  CE1       21.6840  -21.2060  -11.8250 C.ar   82  PHE82      -0.0003
     48  CE2       23.7950  -20.5150  -12.7580 C.ar   82  PHE82      -0.0003
     49  CZ        23.0460  -20.9540  -11.6700 C.ar   82  PHE82      -0.0000
     50  N         20.5930  -17.4370  -13.8160 N.am   83  SER83      -0.1938
     51  CA        21.2070  -16.1990  -13.3640 C.3    83  SER83       0.2055
     52  C         21.7690  -16.2540  -11.9520 C.2    83  SER83       0.2643
     53  O         21.3860  -17.0930  -11.1370 O.2    83  SER83      -0.2714
     54  CB        20.2000  -15.0530  -13.4550 C.3    83  SER83       0.2130
     55  OG        19.1960  -15.1880  -12.4660 O.3    83  SER83      -0.2179
     56  N         22.6970  -15.3430  -11.6880 N.am   84  ARG84      -0.1963
     57  CA        23.3400  -15.2100  -10.3870 C.3    84  ARG84       0.1729
     58  C         23.4880  -13.7080  -10.1700 C.2    84  ARG84       0.2616
     59  O         23.6300  -12.9480  -11.1270 O.2    84  ARG84      -0.2715
     60  CB        24.7280  -15.8620  -10.3840 C.3    84  ARG84       0.0348
     61  CG        24.7610  -17.3810  -10.5730 C.3    84  ARG84       0.0492
     62  CD        26.2130  -17.8520  -10.6900 C.3    84  ARG84       0.2205
     63  NE        26.3670  -19.2870  -10.9420 N.pl3  84  ARG84      -0.0865
     64  CZ        26.1880  -20.2410  -10.0300 C.cat  84  ARG84       0.5346
     65  NH1       25.8420  -19.9280   -8.7880 N.pl3  84  ARG84       0.1354
     66  NH2       26.3690  -21.5140  -10.3570 N.pl3  84  ARG84       0.1354
     67  N         23.4520  -13.2750   -8.9200 N.am   85  ARG85      -0.1963
     68  CA        23.5880  -11.8590   -8.6400 C.3    85  ARG85       0.1729
     69  C         24.9460  -11.5430   -8.0370 C.2    85  ARG85       0.2616
     70  O         25.6190  -12.4160   -7.4800 O.2    85  ARG85      -0.2715
     71  CB        22.4750  -11.3920   -7.6950 C.3    85  ARG85       0.0348
     72  CG        22.4130  -12.1510   -6.3850 C.3    85  ARG85       0.0492
     73  CD        21.2440  -11.6890   -5.5170 C.3    85  ARG85       0.2205
     74  NE        21.1480  -12.4710   -4.2850 N.pl3  85  ARG85      -0.0865
     75  CZ        20.8800  -13.7750   -4.2440 C.cat  85  ARG85       0.5346
     76  NH1       20.6750  -14.4500   -5.3680 N.pl3  85  ARG85       0.1354
     77  NH2       20.8290  -14.4090   -3.0790 N.pl3  85  ARG85       0.1354
     78  N         25.3520  -10.2890   -8.1810 N.am   86  ILE86      -0.1977
     79  CA        26.6130   -9.8180   -7.6260 C.3    86  ILE86       0.1596
     80  C         26.3980   -8.4170   -7.0650 C.2    86  ILE86       0.2287
     81  O         25.4490   -7.7230   -7.4320 O.2    86  ILE86      -0.2864
     82  CB        27.7380   -9.7390   -8.6910 C.3    86  ILE86       0.0276
     83  CG1       27.3140   -8.8070   -9.8260 C.3    86  ILE86       0.0022
     84  CG2       28.0750  -11.1360   -9.2180 C.3    86  ILE86       0.0022
     85  CD1       28.4410   -8.4910  -10.7960 C.3    86  ILE86       0.0001
     86  N         41.7370   -1.6660   -9.5290 N.3    93  LYS93      -0.1231
     87  CA        42.3540   -2.9430   -9.1570 C.3    93  LYS93       0.1693
     88  C         41.3830   -4.1310   -9.1280 C.2    93  LYS93       0.2591
     89  O         41.8070   -5.2850   -9.1080 O.2    93  LYS93      -0.2718
     90  CB        43.0550   -2.8160   -7.8030 C.3    93  LYS93       0.0285
     91  CG        44.3410   -1.9990   -7.8530 C.3    93  LYS93       0.0035
     92  CD        44.9770   -1.8880   -6.4710 C.3    93  LYS93       0.0206
     93  CE        46.2510   -1.0520   -6.5010 C.3    93  LYS93       0.1093
     94  NZ        46.8460   -0.8990   -5.1400 N.3    93  LYS93      -0.1314
     95  N         40.0850   -3.8420   -9.1050 N.am   94  GLU94      -0.1979
     96  CA        39.0540   -4.8760   -9.1210 C.3    94  GLU94       0.1602
     97  C         37.9860   -4.3800  -10.0950 C.2    94  GLU94       0.2287
     98  O         36.8520   -4.0810   -9.7020 O.2    94  GLU94      -0.2864
     99  CB        38.4790   -5.0850   -7.7080 C.3    94  GLU94       0.0415
    100  CG        39.4890   -5.7210   -6.7430 C.3    94  GLU94       0.1163
    101  CD        38.9160   -6.0680   -5.3680 C.2    94  GLU94       0.3649
    102  OE1       39.6510   -6.6910   -4.5680 O.co2  94  GLU94      -0.2457
    103  OE2       37.7490   -5.7260   -5.0740 O.co2  94  GLU94      -0.2457
    104  N         36.4560   -6.0020  -12.5540 N.3    96  ASP96      -0.1225
    105  CA        35.4660   -6.9650  -13.0330 C.3    96  ASP96       0.1805
    106  C         35.0790   -7.8730  -11.8750 C.2    96  ASP96       0.2598
    107  O         35.8410   -8.0370  -10.9200 O.2    96  ASP96      -0.2718
    108  CB        35.9770   -7.7620  -14.2540 C.3    96  ASP96       0.1424
    109  CG        36.9890   -8.8470  -13.9000 C.2    96  ASP96       0.3668
    110  OD1       38.0150   -8.9400  -14.6070 O.co2  96  ASP96      -0.2456
    111  OD2       36.7590   -9.6230  -12.9510 O.co2  96  ASP96      -0.2456
    112  N         33.8800   -8.4360  -11.9370 N.am   97  TRP97      -0.1962
    113  CA        33.4120   -9.3000  -10.8630 C.3    97  TRP97       0.1771
    114  C         32.4060  -10.2770  -11.4500 C.2    97  TRP97       0.2620
    115  O         31.5770   -9.9000  -12.2860 O.2    97  TRP97      -0.2715
    116  CB        32.7590   -8.4410   -9.7730 C.3    97  TRP97       0.0590
    117  CG        32.7690   -9.0410   -8.3910 C.ar   97  TRP97       0.0006
    118  CD1       31.6910   -9.4910   -7.6790 C.ar   97  TRP97       0.0946
    119  CD2       33.9090   -9.2050   -7.5380 C.ar   97  TRP97       0.0152
    120  NE1       32.0920   -9.9210   -6.4320 N.ar   97  TRP97      -0.2442
    121  CE2       33.4480   -9.7560   -6.3200 C.ar   97  TRP97       0.0810
    122  CE3       35.2770   -8.9390   -7.6840 C.ar   97  TRP97       0.0012
    123  CZ2       34.3080  -10.0450   -5.2520 C.ar   97  TRP97       0.0191
    124  CZ3       36.1320   -9.2240   -6.6230 C.ar   97  TRP97       0.0001
    125  CH2       35.6420   -9.7720   -5.4220 C.ar   97  TRP97       0.0015
    126  N         32.4830  -11.5310  -11.0180 N.am   98  GLY98      -0.1940
    127  CA        31.5730  -12.5390  -11.5240 C.3    98  GLY98       0.2014
    128  C         31.9070  -13.9350  -11.0340 C.2    98  GLY98       0.2639
    129  O         32.3780  -14.1140   -9.9090 O.2    98  GLY98      -0.2714
    130  N         31.6800  -14.9250  -11.8900 N.am   99  PHE99      -0.1959
    131  CA        31.9380  -16.3120  -11.5330 C.3    99  PHE99       0.1771
    132  C         32.7330  -17.0840  -12.5870 C.2    99  PHE99       0.2620
    133  O         32.3330  -17.1670  -13.7580 O.2    99  PHE99      -0.2715
    134  CB        30.6150  -17.0400  -11.2780 C.3    99  PHE99       0.0574
    135  CG        29.6870  -16.3150  -10.3390 C.ar   99  PHE99      -0.0200
    136  CD1       28.9120  -15.2490  -10.7880 C.ar   99  PHE99      -0.0042
    137  CD2       29.5800  -16.7080   -9.0100 C.ar   99  PHE99      -0.0042
    138  CE1       28.0410  -14.5830   -9.9260 C.ar   99  PHE99      -0.0003
    139  CE2       28.7110  -16.0490   -8.1340 C.ar   99  PHE99      -0.0003
    140  CZ        27.9400  -14.9860   -8.5940 C.ar   99  PHE99      -0.0000
    141  N         33.8580  -17.6540  -12.1660 N.am  100  SER100     -0.1936
    142  CA        34.6850  -18.4490  -13.0630 C.3   100  SER100      0.2055
    143  C         33.9280  -19.7430  -13.3670 C.2   100  SER100      0.2643
    144  O         34.0900  -20.3350  -14.4350 O.2   100  SER100     -0.2714
    145  CB        36.0270  -18.7750  -12.4090 C.3   100  SER100      0.2130
    146  OG        35.8350  -19.4860  -11.2020 O.3   100  SER100     -0.2179
    147  N         33.1100  -20.1760  -12.4110 N.am  101  ASN101     -0.1971
    148  CA        32.2980  -21.3820  -12.5710 C.3   101  ASN101      0.1688
    149  C         30.8220  -20.9840  -12.5630 C.2   101  ASN101      0.2292
    150  O         30.0530  -21.4160  -11.7010 O.2   101  ASN101     -0.2864
    151  CB        32.5640  -22.3730  -11.4330 C.3   101  ASN101      0.1181
    152  CG        31.7710  -23.6700  -11.5890 C.2   101  ASN101      0.2629
    153  OD1       31.8250  -24.5530  -10.7310 O.2   101  ASN101     -0.2716
    154  ND2       31.0300  -23.7860  -12.6890 N.am  101  ASN101     -0.0877
@<TRIPOS>BOND
     1    10     9    1
     2    10    11    1
     3    10    13    1
     4    11    12    2
     5    13    14    1
     6     2     3    1
     7     2     1    1
     8     2     5    1
     9     3     4    2
    10     6     5    1
    11     6     7    1
    12    14    15    1
    13     8     7    1
    14    17    18    1
    15    15    16    1
    16    20    19    2
    17    18    19    1
    18    18    21    1
    19    31    30    2
    20    39    40    1
    21    28    29    1
    22    23    22    1
    23    23    24    1
    24    22    21    1
    25    30    29    1
    26    42    41    2
    27    34    36   ar
    28    34    33   ar
    29    43    40    1
    30    43    44    1
    31    29    32    1
    32    40    41    1
    33    32    33    1
    34    41    50   am
    35    36    38   ar
    36    24    25    2
    37    33    35   ar
    38   110   109   ar
    39    26    25    1
    40   144   143    2
    41   108   109    1
    42   108   105    1
    43    25    27    1
    44    44    46   ar
    45    44    45   ar
    46    46    48   ar
    47   109   111   ar
    48    50    51    1
    49   133   132    2
    50    38    37   ar
    51    54    51    1
    52    54    55    1
    53   143   142    1
    54   143   147   am
    55    51    52    1
    56    35    37   ar
    57    45    47   ar
    58   142   145    1
    59   142   141    1
    60   105   104    1
    61   105   106    1
    62    48    49   ar
    63   154   152   am
    64   132   141   am
    65   132   131    1
    66   148   149    1
    67   148   147    1
    68   148   151    1
    69   149   150    2
    70   145   146    1
    71   115   114    2
    72    52    56   am
    73    52    53    2
    74   112   106   am
    75   112   113    1
    76   130   131    1
    77   130   128   am
    78   106   107    2
    79    47    49   ar
    80    56    57    1
    81   152   151    1
    82   152   153    2
    83   131   134    1
    84   127   128    1
    85   127   126    1
    86   114   126   am
    87   114   113    1
    88   134   135    1
    89    59    58    2
    90   128   129    2
    91    63    62    1
    92    63    64    2
    93   113   116    1
    94    85    83    1
    95   136   135   ar
    96   136   138   ar
    97    62    61    1
    98    61    60    1
    99    57    60    1
   100    57    58    1
   101    66    64    1
   102   135   137   ar
   103    58    67   am
   104    97    98    2
   105    97    96    1
   106    64    65    1
   107   138   140   ar
   108    83    82    1
   109   116   117    1
   110    86    87    1
   111    84    82    1
   112    87    88    1
   113    87    90    1
   114    88    89    2
   115    88    95   am
   116    96    95    1
   117    96    99    1
   118   137   139   ar
   119    67    68    1
   120    82    79    1
   121    68    69    1
   122    68    71    1
   123   140   139   ar
   124   117   118   ar
   125   117   119   ar
   126    78    69   am
   127    78    79    1
   128    69    70    2
   129    91    90    1
   130    91    92    1
   131    99   100    1
   132    71    72    1
   133   122   119   ar
   134   122   124   ar
   135   118   120   ar
   136    79    80    1
   137   119   121   ar
   138    81    80    2
   139   100   101    1
   140   124   125   ar
   141    93    92    1
   142    93    94    1
   143   120   121   ar
   144    72    73    1
   145   121   123   ar
   146    73    74    1
   147   125   123   ar
   148   101   103   ar
   149   101   102   ar
   150    76    75    1
   151    74    75    2
   152    75    77    1
