@<TRIPOS>MOLECULE
tmp/2fonB00.pdb
 142 138 0 0 0
SMALL
GASTEIGER

@<TRIPOS>ATOM
      1  N         -0.3990   40.2040   -4.7890 N.3   304  TYR304     -0.1241
      2  CA        -1.6110   40.5330   -5.5370 C.3   304  TYR304      0.1605
      3  C         -2.6200   39.3580   -5.5910 C.2   304  TYR304      0.2264
      4  O         -3.8140   39.5990   -5.3970 O.2   304  TYR304     -0.2867
      5  CB        -1.3330   41.0170   -6.9210 C.3   304  TYR304      0.0534
      6  CG        -2.5720   41.4790   -7.6590 C.ar  304  TYR304     -0.0201
      7  CD1       -3.2380   42.6750   -7.2860 C.ar  304  TYR304     -0.0009
      8  CD2       -3.0880   40.7380   -8.7350 C.ar  304  TYR304     -0.0009
      9  CE1       -4.3660   43.1250   -7.9460 C.ar  304  TYR304      0.0417
     10  CE2       -4.2430   41.1710   -9.4210 C.ar  304  TYR304      0.0417
     11  CZ        -4.8670   42.3740   -9.0130 C.ar  304  TYR304      0.1957
     12  OH        -5.9710   42.8410   -9.7110 O.3   304  TYR304     -0.2866
     13  N         -6.5620   40.1380   -4.6500 N.3   308  ARG308     -0.1301
     14  CA        -7.5110   39.8600   -5.7330 C.3   308  ARG308      0.1248
     15  C         -8.4460   38.6670   -5.4980 C.3   308  ARG308      0.2009
     16  O         -7.9910   37.4560   -5.4900 O.3   308  ARG308     -0.2188
     17  CB        -6.7460   39.5340   -7.0050 C.3   308  ARG308      0.0254
     18  CG        -7.6280   39.6890   -8.3240 C.3   308  ARG308      0.0485
     19  CD        -8.3380   41.0570   -8.4780 C.3   308  ARG308      0.2205
     20  NE        -8.9860   41.1280   -9.7840 N.pl3 308  ARG308     -0.0865
     21  CZ        -9.5530   42.2210  -10.3180 C.cat 308  ARG308      0.5346
     22  NH1       -9.5760   43.3770   -9.6870 N.pl3 308  ARG308      0.1354
     23  NH2      -10.0750   42.1650  -11.5180 N.pl3 308  ARG308      0.1354
     24  N        -11.9720   36.9380   -7.2490 N.3   310  GLN310     -0.1231
     25  CA       -12.7570   36.9720   -8.4890 C.3   310  GLN310      0.1698
     26  C        -13.4930   35.6670   -8.6520 C.2   310  GLN310      0.2592
     27  O        -12.8640   34.6290   -8.5780 O.2   310  GLN310     -0.2718
     28  CB       -11.8650   37.2570   -9.7270 C.3   310  GLN310      0.0381
     29  CG       -12.5510   37.9620  -10.8820 C.3   310  GLN310      0.0905
     30  CD       -13.0000   39.4150  -10.5770 C.2   310  GLN310      0.2608
     31  OE1      -13.8530   39.9710  -11.2860 O.2   310  GLN310     -0.2717
     32  NE2      -12.4040   40.0420   -9.5490 N.am  310  GLN310     -0.0878
     33  N        -14.8100   35.7390   -8.8840 N.am  311  PHE311     -0.1976
     34  CA       -15.7050   34.5860   -8.8500 C.3   311  PHE311      0.1639
     35  C        -15.9400   33.9210   -7.4750 C.2   311  PHE311      0.2290
     36  O        -15.3590   34.3190   -6.4600 O.2   311  PHE311     -0.2864
     37  CB       -15.2790   33.5340   -9.8480 C.3   311  PHE311      0.0560
     38  CG       -15.3080   34.0160  -11.2330 C.ar  311  PHE311     -0.0200
     39  CD1      -14.0940   34.3680  -11.8970 C.ar  311  PHE311     -0.0042
     40  CD2      -16.5330   34.1890  -11.8900 C.ar  311  PHE311     -0.0042
     41  CE1      -14.1140   34.8570  -13.1890 C.ar  311  PHE311     -0.0003
     42  CE2      -16.5750   34.6610  -13.2060 C.ar  311  PHE311     -0.0003
     43  CZ       -15.3620   35.0050  -13.8650 C.ar  311  PHE311     -0.0000
     44  N         -7.9050   34.8370   -5.8590 N.3   322  VAL322     -0.1245
     45  CA        -7.5140   34.0420   -7.0220 C.3   322  VAL322      0.1561
     46  C         -6.3770   33.0710   -6.7410 C.2   322  VAL322      0.2260
     47  O         -6.2770   32.0320   -7.3430 O.2   322  VAL322     -0.2867
     48  CB        -7.2320   34.8710   -8.2630 C.3   322  VAL322      0.0252
     49  CG1       -8.5430   35.3680   -8.9000 C.3   322  VAL322      0.0019
     50  CG2       -6.2260   35.9880   -7.9820 C.3   322  VAL322      0.0019
     51  N         -7.1940   29.4040   -6.4540 N.3   325  TYR325     -0.1241
     52  CA        -7.4560   28.5690   -7.6540 C.3   325  TYR325      0.1605
     53  C         -6.2670   27.7340   -8.0690 C.2   325  TYR325      0.2264
     54  O         -5.1300   28.1680   -7.9660 O.2   325  TYR325     -0.2867
     55  CB        -7.9070   29.4110   -8.8520 C.3   325  TYR325      0.0534
     56  CG        -9.2140   30.0720   -8.6360 C.ar  325  TYR325     -0.0201
     57  CD1       -9.4490   31.3640   -9.1340 C.ar  325  TYR325     -0.0009
     58  CD2      -10.2210   29.4270   -7.9240 C.ar  325  TYR325     -0.0009
     59  CE1      -10.7180   32.0110   -8.9190 C.ar  325  TYR325      0.0417
     60  CE2      -11.4400   30.0320   -7.6980 C.ar  325  TYR325      0.0417
     61  CZ       -11.7050   31.3320   -8.1900 C.ar  325  TYR325      0.1957
     62  OH       -12.9290   31.9280   -7.9590 O.3   325  TYR325     -0.2866
     63  N         -5.3480   26.7910  -11.0120 N.3   327  THR327     -0.1203
     64  CA        -4.6870   27.2590  -12.2180 C.3   327  THR327      0.1994
     65  C         -3.7660   28.4100  -11.9350 C.2   327  THR327      0.2617
     66  O         -2.6640   28.4890  -12.5230 O.2   327  THR327     -0.2717
     67  CB        -5.6490   27.6870  -13.3040 C.3   327  THR327      0.1784
     68  OG1       -6.6860   28.4920  -12.7520 O.3   327  THR327     -0.2211
     69  CG2       -6.2720   26.4800  -13.9570 C.3   327  THR327      0.0376
     70  N         -4.2030   29.3130  -11.0570 N.am  328  GLN328     -0.1979
     71  CA        -3.3270   30.3310  -10.5360 C.3   328  GLN328      0.1601
     72  C         -2.1740   29.6550   -9.8260 C.2   328  GLN328      0.2287
     73  O         -1.0240   29.9100  -10.1210 O.2   328  GLN328     -0.2864
     74  CB        -4.0540   31.2590   -9.5900 C.3   328  GLN328      0.0394
     75  CG        -3.2760   32.5340   -9.3270 C.3   328  GLN328      0.0908
     76  CD        -3.5360   33.5780  -10.3420 C.2   328  GLN328      0.2608
     77  OE1       -4.2420   33.3220  -11.3210 O.2   328  GLN328     -0.2717
     78  NE2       -3.0160   34.7920  -10.1150 N.am  328  GLN328     -0.0878
     79  N          0.4070   28.2070  -12.4180 N.3   331  ARG331     -0.1245
     80  CA         1.3300   29.1180  -13.0650 C.3   331  ARG331      0.1563
     81  C          2.2100   29.8410  -12.0580 C.2   331  ARG331      0.2260
     82  O          3.3360   30.1480  -12.3820 O.2   331  ARG331     -0.2867
     83  CB         0.6130   30.0860  -13.9920 C.3   331  ARG331      0.0307
     84  CG        -0.7730   29.5970  -14.4710 C.3   331  ARG331      0.0489
     85  CD        -1.2700   30.3980  -15.5840 C.3   331  ARG331      0.2205
     86  NE        -2.3590   31.2970  -15.2560 N.pl3 331  ARG331     -0.0865
     87  CZ        -2.4160   32.5960  -15.5970 C.cat 331  ARG331      0.5346
     88  NH1       -1.4280   33.2110  -16.2530 N.pl3 331  ARG331      0.1354
     89  NH2       -3.4880   33.3020  -15.2890 N.pl3 331  ARG331      0.1354
     90  N          0.9980   38.5270  -16.3500 N.3   395  LYS395     -0.1231
     91  CA        -0.2500   37.9690  -16.8220 C.3   395  LYS395      0.1693
     92  C         -1.1580   37.4900  -15.6910 C.2   395  LYS395      0.2592
     93  O         -2.3840   37.5670  -15.8100 O.2   395  LYS395     -0.2718
     94  CB         0.0250   36.7960  -17.7310 C.3   395  LYS395      0.0285
     95  CG         0.3520   37.2050  -19.0910 C.3   395  LYS395      0.0035
     96  CD         0.1760   36.0150  -20.0450 C.3   395  LYS395      0.0206
     97  CE         0.5480   36.4160  -21.4720 C.3   395  LYS395      0.1093
     98  NZ         1.9820   36.8940  -21.4840 N.3   395  LYS395     -0.1314
     99  N         -0.5450   36.9970  -14.6260 N.am  396  LEU396     -0.1966
    100  CA        -1.2550   36.4610  -13.5070 C.3   396  LEU396      0.1728
    101  C         -1.9160   37.5760  -12.7690 C.2   396  LEU396      0.2616
    102  O         -2.8490   37.3220  -12.0490 O.2   396  LEU396     -0.2715
    103  CB        -0.3260   35.7600  -12.5150 C.3   396  LEU396      0.0311
    104  CG         0.4100   34.4640  -12.8320 C.3   396  LEU396      0.0022
    105  CD1        1.1520   34.0540  -11.6210 C.3   396  LEU396      0.0001
    106  CD2       -0.5770   33.3680  -13.1720 C.3   396  LEU396      0.0001
    107  N         -1.4340   38.8050  -12.9100 N.am  397  CYS397     -0.1954
    108  CA        -2.0370   39.9450  -12.2610 C.3   397  CYS397      0.1843
    109  C         -3.1810   40.4930  -13.0500 C.2   397  CYS397      0.2626
    110  O         -3.7280   41.5480  -12.7270 O.2   397  CYS397     -0.2714
    111  CB        -0.9960   40.9980  -12.0470 C.3   397  CYS397      0.0997
    112  SG         0.1010   40.4520  -10.7120 S.3   397  CYS397     -0.0797
    113  N         -3.5840   39.7740  -14.0840 N.am  398  GLY398     -0.1940
    114  CA        -4.6800   40.2530  -14.9520 C.3   398  GLY398      0.2014
    115  C         -4.5140   41.6670  -15.4720 C.2   398  GLY398      0.2639
    116  O         -3.4310   42.2190  -15.3960 O.2   398  GLY398     -0.2714
    117  N         -5.5640   42.2790  -15.9950 N.am  399  GLY399     -0.1939
    118  CA        -5.4090   43.6200  -16.5110 C.3   399  GLY399      0.2014
    119  C         -4.5690   44.6120  -15.6970 C.2   399  GLY399      0.2638
    120  O         -3.8530   45.4260  -16.3180 O.2   399  GLY399     -0.2714
    121  N         -4.6330   44.5940  -14.3440 N.am  400  HIS400     -0.1973
    122  CA        -3.9080   45.6180  -13.5840 C.3   400  HIS400      0.1656
    123  C         -2.3990   45.5070  -13.7570 C.2   400  HIS400      0.2291
    124  O         -1.6510   46.5230  -13.6060 O.2   400  HIS400     -0.2864
    125  CB        -4.2840   45.7230  -12.1030 C.3   400  HIS400      0.0771
    126  CG        -5.7180   46.1150  -11.8650 C.ar  400  HIS400      0.0820
    127  ND1       -6.3470   47.1300  -12.5630 N.ar  400  HIS400     -0.2267
    128  CD2       -6.6500   45.6020  -11.0270 C.ar  400  HIS400      0.1154
    129  CE1       -7.6110   47.1970  -12.2000 C.ar  400  HIS400      0.1986
    130  NE2       -7.8160   46.2950  -11.2550 N.ar  400  HIS400     -0.2212
    131  N         -0.8220   45.2450  -16.3750 N.3   402  TYR402     -0.1241
    132  CA        -0.3620   45.9990  -17.5580 C.3   402  TYR402      0.1605
    133  C          0.0200   47.4430  -17.2290 C.2   402  TYR402      0.2264
    134  O          0.5830   48.1510  -18.0500 O.2   402  TYR402     -0.2867
    135  CB        -1.4750   45.9970  -18.5900 C.3   402  TYR402      0.0534
    136  CG        -1.1110   46.4010  -19.9610 C.ar  402  TYR402     -0.0201
    137  CD1       -0.1100   45.7690  -20.6610 C.ar  402  TYR402     -0.0009
    138  CD2       -1.7850   47.4210  -20.5730 C.ar  402  TYR402     -0.0009
    139  CE1        0.2130   46.1850  -21.9500 C.ar  402  TYR402      0.0417
    140  CE2       -1.4900   47.7960  -21.7870 C.ar  402  TYR402      0.0417
    141  CZ        -0.4790   47.1880  -22.4870 C.ar  402  TYR402      0.1957
    142  OH        -0.2450   47.5990  -23.7770 O.3   402  TYR402     -0.2866
@<TRIPOS>BOND
     1   142   141    1
     2   141   139   ar
     3   141   140   ar
     4   139   137   ar
     5   140   138   ar
     6    98    97    1
     7    97    96    1
     8   137   136   ar
     9   138   136   ar
    10    96    95    1
    11   136   135    1
    12    95    94    1
    13   135   132    1
    14   134   133    2
    15    94    91    1
    16   132   133    1
    17   132   131    1
    18    91    90    1
    19    91    92    1
    20   118   117    1
    21   118   119    1
    22   120   119    2
    23    88    87    1
    24   117   115   am
    25    93    92    2
    26   119   121   am
    27    92    99   am
    28    87    89    1
    29    87    86    2
    30    85    86    1
    31    85    84    1
    32   115   116    2
    33   115   114    1
    34   114   113    1
    35    99   100    1
    36    84    83    1
    37   121   122    1
    38   113   109   am
    39    83    80    1
    40    69    67    1
    41    43    42   ar
    42    43    41   ar
    43   123   124    2
    44   123   122    1
    45   122   125    1
    46   100   101    1
    47   100   103    1
    48    67    68    1
    49    67    64    1
    50    42    40   ar
    51    41    39   ar
    52   106   104    1
    53    80    79    1
    54    80    81    1
    55   109   110    2
    56   109   108    1
    57   107   101   am
    58   107   108    1
    59   104   103    1
    60   104   105    1
    61   101   102    2
    62   127   129   ar
    63   127   126   ar
    64    66    65    2
    65    82    81    2
    66   108   111    1
    67    64    65    1
    68    64    63    1
    69   129   130   ar
    70   125   126    1
    71   111   112    1
    72    65    70   am
    73    39    38   ar
    74    40    38   ar
    75   126   128   ar
    76    23    21    1
    77    77    76    2
    78    31    30    2
    79   130   128   ar
    80    38    37    1
    81    70    71    1
    82    29    30    1
    83    29    28    1
    84    30    32   am
    85    71    72    1
    86    71    74    1
    87    76    78   am
    88    76    75    1
    89    21    20    2
    90    21    22    1
    91    73    72    2
    92    37    34    1
    93    20    19    1
    94    28    25    1
    95    12    11    1
    96    74    75    1
    97    10    11   ar
    98    10     8   ar
    99    57    59   ar
   100    57    56   ar
   101    11     9   ar
   102    59    61   ar
   103    49    48    1
   104    33    34    1
   105    33    26   am
   106    55    56    1
   107    55    52    1
   108    34    35    1
   109     8     6   ar
   110    26    27    2
   111    26    25    1
   112    56    58   ar
   113    25    24    1
   114    19    18    1
   115    18    17    1
   116    48    50    1
   117    48    45    1
   118    61    62    1
   119    61    60   ar
   120    53    54    2
   121    53    52    1
   122     9     7   ar
   123    58    60   ar
   124     6     7   ar
   125     6     5    1
   126    52    51    1
   127    35    36    2
   128    47    46    2
   129    45    46    1
   130    45    44    1
   131    17    14    1
   132     5     2    1
   133    14    15    1
   134    14    13    1
   135     3     2    1
   136     3     4    2
   137     2     1    1
   138    15    16    1
