@<TRIPOS>MOLECULE
tmp/2fonB01.pdb
 182 175 0 0 0
SMALL
GASTEIGER

@<TRIPOS>ATOM
      1  N         28.6890   49.2570  -15.0440 N.3    99  LEU99      -0.1245
      2  CA        29.7800   48.7370  -15.8680 C.3    99  LEU99       0.1561
      3  C         31.2210   49.0540  -15.3680 C.2    99  LEU99       0.2260
      4  O         32.1620   48.1910  -15.4400 O.2    99  LEU99      -0.2867
      5  CB        29.5350   49.0810  -17.3340 C.3    99  LEU99       0.0270
      6  CG        28.3770   48.0950  -17.5680 C.3    99  LEU99       0.0019
      7  CD1       26.9840   48.7390  -17.8530 C.3    99  LEU99       0.0001
      8  CD2       28.7400   46.9100  -18.5190 C.3    99  LEU99       0.0001
      9  N         32.3910   45.6990  -14.8710 N.3   103  MET103     -0.1245
     10  CA        33.1510   45.1200  -15.9950 C.3   103  MET103      0.1570
     11  C         34.5210   45.7810  -16.2330 C.2   103  MET103      0.2261
     12  O         35.4960   45.0770  -16.4920 O.2   103  MET103     -0.2867
     13  CB        32.3460   45.1580  -17.2940 C.3   103  MET103      0.0387
     14  CG        31.1140   44.2500  -17.3500 C.3   103  MET103      0.0595
     15  SD        31.3930   42.4660  -17.6730 S.3   103  MET103     -0.1393
     16  CE        31.6640   42.4000  -19.4540 C.3   103  MET103      0.0692
     17  N         33.1850   48.9710  -20.8680 N.3   133  TYR133     -0.1241
     18  CA        33.7550   47.7600  -21.5010 C.3   133  TYR133      0.1605
     19  C         33.2260   47.5640  -22.9220 C.2   133  TYR133      0.2264
     20  O         32.1250   47.0780  -23.1300 O.2   133  TYR133     -0.2867
     21  CB        33.4040   46.5770  -20.6240 C.3   133  TYR133      0.0534
     22  CG        33.8140   45.1860  -21.0650 C.ar  133  TYR133     -0.0201
     23  CD1       34.8770   44.5530  -20.4480 C.ar  133  TYR133     -0.0009
     24  CD2       33.0670   44.4460  -22.0000 C.ar  133  TYR133     -0.0009
     25  CE1       35.2440   43.2470  -20.7830 C.ar  133  TYR133      0.0417
     26  CE2       33.4290   43.1180  -22.3390 C.ar  133  TYR133      0.0417
     27  CZ        34.5230   42.5350  -21.7130 C.ar  133  TYR133      0.1957
     28  OH        34.9640   41.2490  -21.9860 O.3   133  TYR133     -0.2866
     29  N         33.1200   45.7890  -26.1450 N.3   135  GLN135     -0.1231
     30  CA        33.4720   44.6170  -26.9230 C.3   135  GLN135      0.1698
     31  C         32.5600   44.4440  -28.1180 C.2   135  GLN135      0.2592
     32  O         33.0470   44.4070  -29.2380 O.2   135  GLN135     -0.2718
     33  CB        33.4870   43.4010  -26.0550 C.3   135  GLN135      0.0381
     34  CG        33.6850   42.1050  -26.7450 C.3   135  GLN135      0.0905
     35  CD        33.7200   40.9590  -25.7080 C.2   135  GLN135      0.2608
     36  OE1       34.5430   40.9470  -24.7630 O.2   135  GLN135     -0.2717
     37  NE2       32.8050   40.0190  -25.8610 N.am  135  GLN135     -0.0878
     38  N         31.2480   44.3470  -27.8810 N.am  136  THR136     -0.1953
     39  CA        30.2450   44.1690  -28.9600 C.3   136  THR136      0.1897
     40  C         30.4070   45.2080  -30.0280 C.2   136  THR136      0.2313
     41  O         30.7760   46.3190  -29.7030 O.2   136  THR136     -0.2863
     42  CB        28.8550   44.3170  -28.3980 C.3   136  THR136      0.1794
     43  OG1       28.6860   43.3460  -27.3900 O.3   136  THR136     -0.2208
     44  CG2       27.8040   44.0520  -29.4450 C.3   136  THR136      0.0378
     45  N         28.4170   40.2650  -31.7800 N.3   141  GLY141     -0.1210
     46  CA        27.9520   40.2380  -30.4160 C.3   141  GLY141      0.1956
     47  C         28.4130   38.9140  -29.8350 C.2   141  GLY141      0.2612
     48  O         29.3970   38.8710  -29.1200 O.2   141  GLY141     -0.2717
     49  N         27.7400   37.8220  -30.1760 N.am  142  SER142     -0.1952
     50  CA        28.1210   36.5220  -29.7290 C.3   142  SER142      0.1924
     51  C         29.4560   36.0760  -30.2630 C.2   142  SER142      0.2314
     52  O         30.2430   35.5220  -29.5220 O.2   142  SER142     -0.2863
     53  CB        27.0710   35.5330  -30.1620 C.3   142  SER142      0.2116
     54  OG        25.9240   35.6570  -29.3390 O.3   142  SER142     -0.2180
     55  N         26.2990   49.1120  -27.9740 N.3   173  TRP173     -0.1228
     56  CA        25.7580   48.4410  -26.7360 C.3   173  TRP173      0.1722
     57  C         26.4310   48.7300  -25.4070 C.2   173  TRP173      0.2437
     58  O         25.7190   48.7260  -24.4020 O.2   173  TRP173     -0.2733
     59  CB        25.5710   46.8830  -26.7980 C.3   173  TRP173      0.0563
     60  CG        24.3490   46.5220  -27.5540 C.ar  173  TRP173      0.0003
     61  CD1       24.2880   45.8550  -28.7190 C.ar  173  TRP173      0.0946
     62  CD2       22.9980   46.9270  -27.2390 C.ar  173  TRP173      0.0152
     63  NE1       22.9750   45.7900  -29.1570 N.ar  173  TRP173     -0.2442
     64  CE2       22.1690   46.4440  -28.2670 C.ar  173  TRP173      0.0810
     65  CE3       22.4220   47.6300  -26.1890 C.ar  173  TRP173      0.0012
     66  CZ2       20.7940   46.6640  -28.2840 C.ar  173  TRP173      0.0191
     67  CZ3       21.0550   47.8510  -26.2020 C.ar  173  TRP173      0.0001
     68  CH2       20.2520   47.3780  -27.2420 C.ar  173  TRP173      0.0015
     69  N         27.7610   48.9590  -25.3840 N.am  174  PRO174     -0.2718
     70  CA        28.4840   48.9740  -24.1190 C.3   174  PRO174      0.1535
     71  C         27.9480   50.0580  -23.1880 C.2   174  PRO174      0.2599
     72  O         27.9460   51.2740  -23.5390 O.2   174  PRO174     -0.2715
     73  CB        29.9330   49.2850  -24.5450 C.3   174  PRO174      0.0310
     74  CG        29.9950   48.8970  -25.9940 C.3   174  PRO174      0.0237
     75  CD        28.6510   49.2280  -26.5180 C.3   174  PRO174      0.0939
     76  N         27.4850   49.6580  -22.0170 N.am  175  GLY175     -0.1955
     77  CA        26.8420   50.6530  -21.1830 C.3   175  GLY175      0.1869
     78  C         27.8410   51.6230  -20.5600 C.2   175  GLY175      0.2309
     79  O         28.9140   51.1990  -20.1490 O.2   175  GLY175     -0.2863
     80  N         15.5450   52.0360  -25.6110 N.3   226  LYS226     -0.1245
     81  CA        15.2570   50.6630  -25.4730 C.3   226  LYS226      0.1561
     82  C         13.8800   50.4260  -24.8600 C.2   226  LYS226      0.2260
     83  O         13.1990   51.3350  -24.3210 O.2   226  LYS226     -0.2867
     84  CB        16.3090   50.0060  -24.5920 C.3   226  LYS226      0.0271
     85  CG        17.7750   50.3120  -24.9120 C.3   226  LYS226      0.0035
     86  CD        18.2350   51.6130  -24.3500 C.3   226  LYS226      0.0206
     87  CE        19.5720   51.4740  -23.7060 C.3   226  LYS226      0.1093
     88  NZ        20.1380   52.8280  -23.3470 N.3   226  LYS226     -0.1314
     89  N         16.1630   50.4890  -19.0550 N.3   232  TYR232     -0.1241
     90  CA        17.5910   50.7160  -19.3780 C.3   232  TYR232      0.1605
     91  C         17.8060   52.0650  -20.0080 C.2   232  TYR232      0.2264
     92  O         18.9180   52.4380  -20.2890 O.2   232  TYR232     -0.2867
     93  CB        18.1370   49.6460  -20.2980 C.3   232  TYR232      0.0534
     94  CG        19.0160   48.6740  -19.6450 C.ar  232  TYR232     -0.0201
     95  CD1       18.4900   47.5820  -18.9770 C.ar  232  TYR232     -0.0009
     96  CD2       20.3940   48.8110  -19.7180 C.ar  232  TYR232     -0.0009
     97  CE1       19.3130   46.6510  -18.3450 C.ar  232  TYR232      0.0417
     98  CE2       21.2440   47.9040  -19.1200 C.ar  232  TYR232      0.0417
     99  CZ        20.6960   46.8240  -18.4270 C.ar  232  TYR232      0.1957
    100  OH        21.5410   45.9070  -17.7990 O.3   232  TYR232     -0.2866
    101  N         23.9120   53.3950  -23.3150 N.3   237  ASN237     -0.1240
    102  CA        24.5490   52.4020  -24.1450 C.3   237  ASN237      0.1653
    103  C         25.1100   53.0590  -25.4300 C.2   237  ASN237      0.2266
    104  O         24.4350   53.8180  -26.1340 O.2   237  ASN237     -0.2867
    105  CB        23.5560   51.2980  -24.4980 C.3   237  ASN237      0.1155
    106  CG        23.0400   50.5490  -23.2730 C.2   237  ASN237      0.2627
    107  OD1       22.0170   50.9360  -22.6610 O.2   237  ASN237     -0.2716
    108  ND2       23.7540   49.4780  -22.8820 N.am  237  ASN237     -0.0877
    109  N         17.3750   41.7460  -21.1070 N.3   417  PRO417     -0.2116
    110  CA        18.7040   41.6490  -21.7500 C.3   417  PRO417      0.1372
    111  C         19.5930   40.5140  -21.1810 C.2   417  PRO417      0.2244
    112  O         20.4210   39.9650  -21.8980 O.2   417  PRO417     -0.2868
    113  CB        19.3420   43.0610  -21.5400 C.3   417  PRO417      0.0268
    114  CG        18.3070   43.9030  -20.9780 C.3   417  PRO417      0.0207
    115  CD        17.1520   43.0910  -20.4960 C.3   417  PRO417      0.0892
    116  N         20.6550   37.7760  -23.4280 N.3   420  THR420     -0.1203
    117  CA        21.5810   38.0120  -24.5270 C.3   420  THR420      0.1994
    118  C         22.9670   38.4430  -24.0350 C.2   420  THR420      0.2618
    119  O         23.9630   38.2070  -24.7190 O.2   420  THR420     -0.2717
    120  CB        21.0490   39.0500  -25.5240 C.3   420  THR420      0.1784
    121  OG1       20.8040   40.3130  -24.8630 O.3   420  THR420     -0.2211
    122  CG2       19.7320   38.5350  -26.1250 C.3   420  THR420      0.0376
    123  N         23.0890   39.0350  -22.8480 N.am  421  TYR421     -0.1961
    124  CA        24.4620   39.3440  -22.5080 C.3   421  TYR421      0.1771
    125  C         25.2610   38.3300  -21.7140 C.2   421  TYR421      0.2619
    126  O         24.7370   37.4200  -21.1380 O.2   421  TYR421     -0.2715
    127  CB        24.7130   40.7740  -22.0470 C.3   421  TYR421      0.0574
    128  CG        23.9770   41.1800  -20.8640 C.ar  421  TYR421     -0.0198
    129  CD1       23.7740   40.3010  -19.7940 C.ar  421  TYR421     -0.0009
    130  CD2       23.5330   42.4850  -20.7640 C.ar  421  TYR421     -0.0009
    131  CE1       23.0610   40.7280  -18.6240 C.ar  421  TYR421      0.0417
    132  CE2       22.8440   42.9360  -19.6310 C.ar  421  TYR421      0.0417
    133  CZ        22.6020   42.0480  -18.5850 C.ar  421  TYR421      0.1957
    134  OH        21.9250   42.5450  -17.5210 O.3   421  TYR421     -0.2866
    135  N         26.5710   38.5110  -21.7760 N.am  422  GLU422     -0.1963
    136  CA        27.4960   37.5410  -21.3090 C.3   422  GLU422      0.1733
    137  C         27.0630   36.1670  -21.8620 C.2   422  GLU422      0.2617
    138  O         26.9360   35.2000  -21.1310 O.2   422  GLU422     -0.2715
    139  CB        27.5900   37.6060  -19.7770 C.3   422  GLU422      0.0429
    140  CG        28.6370   36.6980  -19.1640 C.3   422  GLU422      0.1163
    141  CD        30.0540   37.0850  -19.5430 C.2   422  GLU422      0.3649
    142  OE1       30.2980   38.2940  -19.7760 O.co2 422  GLU422     -0.2457
    143  OE2       30.9160   36.1790  -19.6140 O.co2 422  GLU422     -0.2457
    144  N         26.8350   36.1050  -23.1750 N.am  423  GLY423     -0.1940
    145  CA        26.3700   34.8710  -23.8410 C.3   423  GLY423      0.2014
    146  C         24.8750   34.7630  -24.1470 C.2   423  GLY423      0.2638
    147  O         24.0470   34.7100  -23.2260 O.2   423  GLY423     -0.2714
    148  N         24.5320   34.7150  -25.4300 N.am  424  ASP424     -0.1971
    149  CA        23.2150   34.3350  -25.8850 C.3   424  ASP424      0.1709
    150  C         22.7750   32.9910  -25.2920 C.2   424  ASP424      0.2293
    151  O         23.5190   32.0180  -25.3960 O.2   424  ASP424     -0.2864
    152  CB        23.2770   34.1690  -27.3880 C.3   424  ASP424      0.1436
    153  CG        21.8950   33.9710  -28.0110 C.2   424  ASP424      0.3671
    154  OD1       21.4810   32.7960  -28.1880 O.co2 424  ASP424     -0.2456
    155  OD2       21.2120   34.9990  -28.3140 O.co2 424  ASP424     -0.2456
    156  N         20.6730   30.5550  -26.0800 N.3   426  VAL426     -0.1231
    157  CA        20.7630   29.3680  -26.9470 C.3   426  VAL426      0.1692
    158  C         22.2050   29.0560  -27.3480 C.2   426  VAL426      0.2591
    159  O         22.5640   27.9000  -27.4420 O.2   426  VAL426     -0.2718
    160  CB        19.8160   29.4780  -28.1930 C.3   426  VAL426      0.0266
    161  CG1       19.8680   28.1870  -29.0670 C.3   426  VAL426      0.0020
    162  CG2       18.3670   29.8360  -27.7390 C.3   426  VAL426      0.0020
    163  N         23.0370   30.0590  -27.5880 N.am  427  VAL427     -0.1980
    164  CA        24.4320   29.7600  -27.9300 C.3   427  VAL427      0.1595
    165  C         25.2080   29.1150  -26.7760 C.2   427  VAL427      0.2287
    166  O         26.0580   28.2280  -26.9710 O.2   427  VAL427     -0.2864
    167  CB        25.1460   30.9800  -28.4490 C.3   427  VAL427      0.0276
    168  CG1       26.6640   30.8630  -28.2690 C.3   427  VAL427      0.0022
    169  CG2       24.8140   31.1520  -29.9080 C.3   427  VAL427      0.0022
    170  N         24.3700   25.3680  -26.7460 N.3   430  LEU430     -0.1245
    171  CA        25.0320   24.4790  -27.6790 C.3   430  LEU430      0.1561
    172  C         26.4000   24.1650  -27.1210 C.2   430  LEU430      0.2260
    173  O         26.8790   23.0510  -27.2730 O.2   430  LEU430     -0.2867
    174  CB        25.1240   25.0690  -29.0690 C.3   430  LEU430      0.0270
    175  CG        23.8330   25.2880  -29.9040 C.3   430  LEU430      0.0019
    176  CD1       24.0820   26.3300  -30.9960 C.3   430  LEU430      0.0001
    177  CD2       23.3700   24.0140  -30.5350 C.3   430  LEU430      0.0001
    178  N         21.0930   20.3380  -33.8940 N.3   514  ALA514     -0.1245
    179  CA        21.0800   21.4130  -32.9050 C.3   514  ALA514      0.1562
    180  C         19.8690   21.5010  -31.9460 C.2   514  ALA514      0.2260
    181  O         20.0340   21.7950  -30.7530 O.2   514  ALA514     -0.2867
    182  CB        21.2800   22.7210  -33.5870 C.3   514  ALA514      0.0290
@<TRIPOS>BOND
     1   178   179    1
     2   182   179    1
     3   179   180    1
     4   180   181    2
     5    45    46    1
     6   176   175    1
     7   177   175    1
     8    46    47    1
     9    51    50    1
    10    51    52    2
    11    49    47   am
    12    49    50    1
    13    53    50    1
    14    53    54    1
    15    40    41    2
    16    40    39    1
    17   169   167    1
    18   175   174    1
    19    47    48    2
    20    44    42    1
    21    32    31    2
    22    63    61   ar
    23    63    64   ar
    24   174   171    1
    25   161   160    1
    26    39    42    1
    27    39    38    1
    28    61    60   ar
    29   167   168    1
    30   167   164    1
    31    42    43    1
    32   155   153   ar
    33    66    64   ar
    34    66    68   ar
    35    64    62   ar
    36   160   162    1
    37   160   157    1
    38   154   153   ar
    39    31    38   am
    40    31    30    1
    41   153   152    1
    42    55    56    1
    43   164   163    1
    44   164   165    1
    45   171   172    1
    46   171   170    1
    47   163   158   am
    48    60    62   ar
    49    60    59    1
    50   159   158    2
    51   152   149    1
    52   158   157    1
    53   173   172    2
    54    68    67   ar
    55    62    65   ar
    56   166   165    2
    57   157   156    1
    58    30    29    1
    59    30    33    1
    60    59    56    1
    61    34    33    1
    62    34    35    1
    63    56    57    1
    64    75    74    1
    65    75    69    1
    66    67    65   ar
    67   104   103    2
    68   122   120    1
    69    74    73    1
    70   149   148    1
    71   149   150    1
    72    37    35   am
    73    35    36    2
    74    80    81    1
    75   120   121    1
    76   120   117    1
    77    81    82    1
    78    81    84    1
    79   148   146   am
    80   103   102    1
    81    57    69   am
    82    57    58    2
    83   151   150    2
    84    69    70    1
    85    85    84    1
    86    85    86    1
    87    82    83    2
    88   119   118    2
    89    73    70    1
    90   117   118    1
    91   117   116    1
    92   105   102    1
    93   105   106    1
    94    86    87    1
    95   146   145    1
    96   146   147    2
    97   102   101    1
    98    70    71    1
    99   118   123   am
   100   145   144    1
   101    87    88    1
   102    72    71    2
   103   106   108   am
   104   106   107    2
   105    71    76   am
   106   144   137   am
   107    20    19    2
   108    19    18    1
   109   123   124    1
   110   124   127    1
   111   124   125    1
   112    26    24   ar
   113    26    27   ar
   114   127   128    1
   115    76    77    1
   116    24    22   ar
   117    28    27    1
   118   112   111    2
   119   137   136    1
   120   137   138    2
   121   135   125   am
   122   135   136    1
   123   110   113    1
   124   110   111    1
   125   110   109    1
   126   125   126    2
   127    27    25   ar
   128   113   114    1
   129    18    17    1
   130    18    21    1
   131   136   139    1
   132    77    78    1
   133   109   115    1
   134    22    21    1
   135    22    23   ar
   136   114   115    1
   137   128   130   ar
   138   128   129   ar
   139    25    23   ar
   140   130   132   ar
   141    78    79    2
   142    93    94    1
   143    93    90    1
   144    92    91    2
   145    91    90    1
   146   129   131   ar
   147   139   140    1
   148   142   141   ar
   149    96    94   ar
   150    96    98   ar
   151    94    95   ar
   152   132   133   ar
   153   143   141   ar
   154   141   140    1
   155    16    15    1
   156    90    89    1
   157    98    99   ar
   158    95    97   ar
   159   131   133   ar
   160   133   134    1
   161     8     6    1
   162    99    97   ar
   163    99   100    1
   164     7     6    1
   165    15    14    1
   166     6     5    1
   167    14    13    1
   168     5     2    1
   169    13    10    1
   170    12    11    2
   171    11    10    1
   172    10     9    1
   173     2     3    1
   174     2     1    1
   175     4     3    2
