@<TRIPOS>MOLECULE
tmp/2foqA00.pdb
 136 132 0 0 0
SMALL
GASTEIGER

@<TRIPOS>ATOM
      1  N        -12.6010    6.4310   11.3030 N.3    89  GLN89      -0.1245
      2  CA       -12.2900    5.2770   10.4360 C.3    89  GLN89       0.1566
      3  C        -12.5690    4.0020   11.2280 C.2    89  GLN89       0.2260
      4  O        -12.6160    4.0390   12.4700 O.2    89  GLN89      -0.2867
      5  CB       -10.8580    5.2510    9.9340 C.3    89  GLN89       0.0367
      6  CG        -9.7970    5.4200   11.0420 C.3    89  GLN89       0.0905
      7  CD        -9.0320    4.1380   11.3030 C.2    89  GLN89       0.2608
      8  OE1       -9.5650    3.0180   11.2400 O.2    89  GLN89      -0.2717
      9  NE2       -7.7580    4.3500   11.6740 N.am   89  GLN89      -0.0878
     10  N        -11.1650   -0.3180   11.0260 N.3    91  HIS91      -0.1241
     11  CA       -10.2730   -1.2850   10.3780 C.3    91  HIS91       0.1621
     12  C        -10.3540   -2.5600   11.1970 C.2    91  HIS91       0.2264
     13  O        -10.9780   -2.5520   12.2700 O.2    91  HIS91      -0.2867
     14  CB        -8.8210   -0.7710   10.3070 C.3    91  HIS91       0.0745
     15  CG        -8.2990   -0.4860   11.6960 C.ar   91  HIS91       0.0817
     16  ND1       -8.4700    0.7370   12.3330 N.ar   91  HIS91      -0.2268
     17  CD2       -7.6310   -1.2960   12.5590 C.ar   91  HIS91       0.1154
     18  CE1       -7.8990    0.6430   13.5480 C.ar   91  HIS91       0.1986
     19  NE2       -7.3950   -0.5980   13.7150 N.ar   91  HIS91      -0.2212
     20  N         -7.9930   -6.2780   12.5250 N.3    93  HIS93      -0.1241
     21  CA        -6.7880   -7.0810   12.6640 C.3    93  HIS93       0.1621
     22  C         -7.2270   -8.5470   12.5500 C.2    93  HIS93       0.2264
     23  O         -8.3000   -8.9310   13.0660 O.2    93  HIS93      -0.2867
     24  CB        -6.1270   -6.8550   14.0250 C.3    93  HIS93       0.0745
     25  CG        -5.8480   -5.4130   14.2730 C.ar   93  HIS93       0.0817
     26  ND1       -4.5990   -4.8380   14.0390 N.ar   93  HIS93      -0.2268
     27  CD2       -6.6530   -4.3980   14.6720 C.ar   93  HIS93       0.1154
     28  CE1       -4.6650   -3.5260   14.3370 C.ar   93  HIS93       0.1986
     29  NE2       -5.8950   -3.2480   14.7110 N.ar   93  HIS93      -0.2212
     30  N        -11.9510   -2.4910   14.9210 N.3   116  HIS116     -0.1241
     31  CA       -11.7120   -1.2650   15.6560 C.3   116  HIS116      0.1621
     32  C        -12.4020   -0.0860   14.9890 C.2   116  HIS116      0.2264
     33  O        -12.0240    0.2830   13.8480 O.2   116  HIS116     -0.2867
     34  CB       -10.1900   -0.9640   15.7400 C.3   116  HIS116      0.0745
     35  CG        -9.4700   -1.9320   16.6310 C.ar  116  HIS116      0.0817
     36  ND1       -8.1110   -2.1850   16.6180 N.ar  116  HIS116     -0.2268
     37  CD2       -9.9790   -2.7430   17.5780 C.ar  116  HIS116      0.1154
     38  CE1       -7.8010   -3.1010   17.5270 C.ar  116  HIS116      0.1986
     39  NE2       -8.9520   -3.4620   18.1440 N.ar  116  HIS116     -0.2212
     40  N        -12.6770    3.7580   15.2920 N.3   118  VAL118     -0.1245
     41  CA       -11.8020    4.7550   15.9260 C.3   118  VAL118      0.1561
     42  C        -12.4900    6.1220   15.9600 C.2   118  VAL118      0.2260
     43  O        -12.9610    6.5790   14.9180 O.2   118  VAL118     -0.2867
     44  CB       -10.5070    4.8310   15.1010 C.3   118  VAL118      0.0252
     45  CG1       -9.5260    5.8200   15.7310 C.3   118  VAL118      0.0019
     46  CG2       -9.8500    3.4680   14.9400 C.3   118  VAL118      0.0019
     47  N         -8.2120   15.0320   14.8470 N.3   127  PHE127     -0.1241
     48  CA        -7.5420   13.7970   15.2870 C.3   127  PHE127      0.1605
     49  C         -6.1240   14.0800   15.7610 C.2   127  PHE127      0.2264
     50  O         -5.6510   13.4860   16.7390 O.2   127  PHE127     -0.2867
     51  CB        -7.5240   12.7910   14.1400 C.3   127  PHE127      0.0534
     52  CG        -6.9220   11.4470   14.5010 C.ar  127  PHE127     -0.0203
     53  CD1       -7.7780   10.4670   15.0240 C.ar  127  PHE127     -0.0042
     54  CD2       -5.5760   11.1790   14.3490 C.ar  127  PHE127     -0.0042
     55  CE1       -7.2460    9.2480   15.3180 C.ar  127  PHE127     -0.0003
     56  CE2       -5.0750    9.9150   14.6210 C.ar  127  PHE127     -0.0003
     57  CZ        -5.9180    8.9500   15.1310 C.ar  127  PHE127     -0.0000
     58  N         -4.5240   13.1330   19.5520 N.3   131  VAL131     -0.1245
     59  CA        -3.5070   12.1370   19.9680 C.3   131  VAL131      0.1561
     60  C         -2.3280   12.8010   20.6910 C.2   131  VAL131      0.2260
     61  O         -1.2760   12.1990   20.8950 O.2   131  VAL131     -0.2867
     62  CB        -3.0100   11.2850   18.7980 C.3   131  VAL131      0.0252
     63  CG1       -4.2010   10.5630   18.2090 C.3   131  VAL131      0.0019
     64  CG2       -2.3260   12.0630   17.6860 C.3   131  VAL131      0.0019
     65  N        -11.7340    3.9170   21.1360 N.3   139  VAL139     -0.1245
     66  CA       -11.8240    2.8690   20.1240 C.3   139  VAL139      0.1561
     67  C        -12.8020    1.8110   20.6320 C.2   139  VAL139      0.2260
     68  O        -12.6750    1.2870   21.7560 O.2   139  VAL139     -0.2867
     69  CB       -10.4700    2.2490   19.7710 C.3   139  VAL139      0.0252
     70  CG1      -10.6330    1.2400   18.6340 C.3   139  VAL139      0.0019
     71  CG2       -9.5110    3.3550   19.3020 C.3   139  VAL139      0.0019
     72  N         -2.8970    3.2920   21.3020 N.3   194  LEU194     -0.1231
     73  CA        -2.8810    2.6930   19.9580 C.3   194  LEU194      0.1693
     74  C         -2.1900    1.3450   19.9740 C.2   194  LEU194      0.2593
     75  O         -1.1610    1.1850   20.6910 O.2   194  LEU194     -0.2718
     76  CB        -2.1480    3.6370   18.9800 C.3   194  LEU194      0.0284
     77  CG        -2.7020    5.0560   18.8840 C.3   194  LEU194      0.0019
     78  CD1       -1.7910    5.8800   17.9520 C.3   194  LEU194      0.0001
     79  CD2       -4.1410    5.0530   18.3910 C.3   194  LEU194      0.0001
     80  N         -2.6360    0.3940   19.1520 N.am  195  THR195     -0.1939
     81  CA        -1.9820   -0.9210   19.1420 C.3   195  THR195      0.2028
     82  C         -0.9680   -1.0400   18.0060 C.2   195  THR195      0.2643
     83  O         -0.3530   -2.0910   17.8790 O.2   195  THR195     -0.2714
     84  CB        -2.9950   -2.0690   19.0210 C.3   195  THR195      0.1808
     85  OG1       -3.5960   -1.9530   17.7230 O.3   195  THR195     -0.2208
     86  CG2       -4.0800   -2.0050   20.0930 C.3   195  THR195      0.0379
     87  N         -0.7860    0.0280   17.2260 N.am  196  THR196     -0.1937
     88  CA         0.3070    0.0280   16.2570 C.3   196  THR196      0.2013
     89  C          1.1580    1.2540   16.5360 C.2   196  THR196      0.2484
     90  O          0.6510    2.1970   17.1670 O.2   196  THR196     -0.2729
     91  CB        -0.1620    0.1460   14.7980 C.3   196  THR196      0.1807
     92  OG1       -0.7520    1.4380   14.5510 O.3   196  THR196     -0.2208
     93  CG2       -1.2300   -0.8520   14.4230 C.3   196  THR196      0.0379
     94  N          2.4010    1.2980   16.0690 N.am  197  PRO197     -0.2715
     95  CA         3.1810    2.5650   16.1070 C.3   197  PRO197      0.1521
     96  C          2.3170    3.7030   15.5740 C.2   197  PRO197      0.2440
     97  O          1.5590    3.4720   14.6010 O.2   197  PRO197     -0.2731
     98  CB         4.3870    2.2160   15.2260 C.3   197  PRO197      0.0310
     99  CG         4.5910    0.7300   15.4820 C.3   197  PRO197      0.0237
    100  CD         3.1750    0.1850   15.4780 C.3   197  PRO197      0.0939
    101  N          2.3120    4.8870   16.1680 N.am  198  PRO198     -0.2727
    102  CA         3.2190    5.2660   17.2440 C.3   198  PRO198      0.1402
    103  C          2.8500    4.9050   18.6780 C.2   198  PRO198      0.2269
    104  O          3.5310    5.3900   19.6150 O.2   198  PRO198     -0.2865
    105  CB         3.2620    6.8230   17.0720 C.3   198  PRO198      0.0296
    106  CG         1.8370    7.1380   16.6320 C.3   198  PRO198      0.0237
    107  CD         1.4810    6.0050   15.7050 C.3   198  PRO198      0.0939
    108  N          0.6220    5.5570   20.8950 N.3   200  LEU200     -0.1245
    109  CA         0.3680    6.6910   21.7710 C.3   200  LEU200      0.1561
    110  C         -0.6900    6.3550   22.8060 C.2   200  LEU200      0.2260
    111  O         -1.6800    5.6820   22.5130 O.2   200  LEU200     -0.2867
    112  CB        -0.0430    7.9520   20.9760 C.3   200  LEU200      0.0270
    113  CG         1.0380    8.3540   19.9690 C.3   200  LEU200      0.0019
    114  CD1        0.5550    9.4960   19.0880 C.3   200  LEU200      0.0001
    115  CD2        2.3510    8.7480   20.6460 C.3   200  LEU200      0.0001
    116  N         -5.9900    6.3830   24.4380 N.3   202  VAL202     -0.1245
    117  CA        -7.2210    5.6710   24.0870 C.3   202  VAL202      0.1561
    118  C         -7.9930    5.1880   25.3040 C.2   202  VAL202      0.2260
    119  O         -7.4330    4.5180   26.1610 O.2   202  VAL202     -0.2867
    120  CB        -6.9150    4.4510   23.1880 C.3   202  VAL202      0.0252
    121  CG1       -8.2440    3.7770   22.7850 C.3   202  VAL202      0.0019
    122  CG2       -6.1050    4.8690   21.9530 C.3   202  VAL202      0.0019
    123  N        -10.3950    2.4090   25.7280 N.3   204  TRP204     -0.1241
    124  CA       -10.8360    1.2070   25.0350 C.3   204  TRP204      0.1605
    125  C        -12.2140    0.8100   25.5570 C.2   204  TRP204      0.2264
    126  O        -12.4350    0.7660   26.7770 O.2   204  TRP204     -0.2867
    127  CB        -9.8240    0.0320   25.2550 C.3   204  TRP204      0.0550
    128  CG        -8.7100    0.2140   24.2480 C.ar  204  TRP204      0.0003
    129  CD1       -7.4730    0.7990   24.4080 C.ar  204  TRP204      0.0946
    130  CD2       -8.7720   -0.2020   22.8890 C.ar  204  TRP204      0.0152
    131  NE1       -6.7600    0.7800   23.2360 N.ar  204  TRP204     -0.2442
    132  CE2       -7.5410    0.1590   22.2820 C.ar  204  TRP204      0.0810
    133  CE3       -9.7600   -0.8620   22.1030 C.ar  204  TRP204      0.0012
    134  CZ2       -7.2700   -0.1050   20.9490 C.ar  204  TRP204      0.0191
    135  CZ3       -9.4570   -1.1170   20.7700 C.ar  204  TRP204      0.0001
    136  CH2       -8.2270   -0.7390   20.2040 C.ar  204  TRP204      0.0015
@<TRIPOS>BOND
     1     5     2    1
     2     5     6    1
     3    14    11    1
     4    14    15    1
     5    11    10    1
     6    11    12    1
     7     2     3    1
     8     2     1    1
     9     6     7    1
    10    12    13    2
    11     3     4    2
    12     8     7    2
    13     7     9   am
    14    15    16   ar
    15    15    17   ar
    16    16    18   ar
    17    20    21    1
    18    22    21    1
    19    22    23    2
    20    17    19   ar
    21    21    24    1
    22    18    19   ar
    23    33    32    2
    24    24    25    1
    25    26    25   ar
    26    26    28   ar
    27    51    52    1
    28    51    48    1
    29    25    27   ar
    30    28    29   ar
    31    54    52   ar
    32    54    56   ar
    33    93    91    1
    34    52    53   ar
    35    92    91    1
    36    97    96    2
    37    56    57   ar
    38    27    29   ar
    39    91    88    1
    40    47    48    1
    41    43    42    2
    42    30    31    1
    43    46    44    1
    44    32    31    1
    45    53    55   ar
    46    44    45    1
    47    44    41    1
    48    57    55   ar
    49    98    99    1
    50    98    95    1
    51    48    49    1
    52    40    41    1
    53   100    99    1
    54   100    94    1
    55    96    95    1
    56    96   101   am
    57    31    34    1
    58   107   101    1
    59   107   106    1
    60    34    35    1
    61    49    50    2
    62    41    42    1
    63    94    95    1
    64    94    89   am
    65   101   102    1
    66    88    89    1
    67    88    87    1
    68    89    90    2
    69    36    35   ar
    70    36    38   ar
    71    35    37   ar
    72   106   105    1
    73   105   102    1
    74    87    82   am
    75   102   103    1
    76    38    39   ar
    77    37    39   ar
    78    64    62    1
    79    85    84    1
    80    83    82    2
    81    78    77    1
    82    82    81    1
    83    63    62    1
    84    79    77    1
    85    70    69    1
    86   103   104    2
    87    62    59    1
    88    77    76    1
    89    76    73    1
    90    84    81    1
    91    84    86    1
    92   114   113    1
    93    81    80    1
    94    80    74   am
    95    71    69    1
    96    58    59    1
    97    69    66    1
    98    73    74    1
    99    73    72    1
   100    59    60    1
   101   113   115    1
   102   113   112    1
   103    74    75    2
   104    66    67    1
   105    66    65    1
   106   136   135   ar
   107   136   134   ar
   108    67    68    2
   109    60    61    2
   110   135   133   ar
   111   108   109    1
   112   134   132   ar
   113   112   109    1
   114   109   110    1
   115   122   120    1
   116   133   130   ar
   117   132   130   ar
   118   132   131   ar
   119   111   110    2
   120   121   120    1
   121   130   128   ar
   122   120   117    1
   123   131   129   ar
   124   117   116    1
   125   117   118    1
   126   128   129   ar
   127   128   127    1
   128   124   127    1
   129   124   125    1
   130   124   123    1
   131   118   119    2
   132   125   126    2
