@<TRIPOS>MOLECULE
tmp/2fosA00.pdb
 133 130 0 0 0
SMALL
GASTEIGER

@<TRIPOS>ATOM
      1  N        -12.6200    6.3650   11.2850 N.3    91  GLN91      -0.1245
      2  CA       -12.3040    5.2110   10.4580 C.3    91  GLN91       0.1566
      3  C        -12.5960    3.9470   11.2290 C.2    91  GLN91       0.2260
      4  O        -12.6280    3.9530   12.4510 O.2    91  GLN91      -0.2867
      5  CB       -10.8620    5.2150    9.9700 C.3    91  GLN91       0.0367
      6  CG        -9.7780    5.2930   11.0630 C.3    91  GLN91       0.0905
      7  CD        -9.0590    4.0030   11.3150 C.2    91  GLN91       0.2608
      8  OE1       -9.6010    2.8910   11.2060 O.2    91  GLN91      -0.2717
      9  NE2       -7.8210    4.1120   11.8290 N.am   91  GLN91      -0.0878
     10  N        -11.1930   -0.3730   10.9640 N.3    93  HIS93      -0.1241
     11  CA       -10.3220   -1.3590   10.3760 C.3    93  HIS93       0.1621
     12  C        -10.4130   -2.6460   11.2130 C.2    93  HIS93       0.2264
     13  O        -11.0140   -2.6510   12.2830 O.2    93  HIS93      -0.2867
     14  CB        -8.8740   -0.8800   10.3110 C.3    93  HIS93       0.0745
     15  CG        -8.3080   -0.6000   11.6660 C.ar   93  HIS93       0.0817
     16  ND1       -8.5110    0.6130   12.3020 N.ar   93  HIS93      -0.2268
     17  CD2       -7.6750   -1.4020   12.5390 C.ar   93  HIS93       0.1154
     18  CE1       -7.9630    0.5180   13.5090 C.ar   93  HIS93       0.1986
     19  NE2       -7.4490   -0.6900   13.7130 N.ar   93  HIS93      -0.2212
     20  N         -8.0400   -6.3880   12.5290 N.3    95  HIS95      -0.1241
     21  CA        -6.8520   -7.2000   12.6820 C.3    95  HIS95       0.1621
     22  C         -7.2860   -8.6580   12.6030 C.2    95  HIS95       0.2264
     23  O         -8.3630   -8.9990   13.0950 O.2    95  HIS95      -0.2867
     24  CB        -6.1570   -6.9550   14.0450 C.3    95  HIS95       0.0745
     25  CG        -5.8690   -5.4970   14.2840 C.ar   95  HIS95       0.0817
     26  ND1       -4.6400   -4.9370   14.0830 N.ar   95  HIS95      -0.2268
     27  CD2       -6.6600   -4.4780   14.7000 C.ar   95  HIS95       0.1154
     28  CE1       -4.7160   -3.6200   14.3880 C.ar   95  HIS95       0.1986
     29  NE2       -5.9500   -3.3000   14.7460 N.ar   95  HIS95      -0.2212
     30  N        -12.0140   -2.5630   14.9500 N.3   118  HIS118     -0.1241
     31  CA       -11.7500   -1.3120   15.6760 C.3   118  HIS118      0.1621
     32  C        -12.4360   -0.1480   14.9920 C.2   118  HIS118      0.2264
     33  O        -12.0640    0.2210   13.8670 O.2   118  HIS118     -0.2867
     34  CB       -10.2280   -1.0560   15.7630 C.3   118  HIS118      0.0745
     35  CG        -9.5280   -2.0550   16.6580 C.ar  118  HIS118      0.0817
     36  ND1       -8.1720   -2.2500   16.6050 N.ar  118  HIS118     -0.2268
     37  CD2      -10.0770   -2.8500   17.6090 C.ar  118  HIS118      0.1154
     38  CE1       -7.8970   -3.1850   17.5280 C.ar  118  HIS118      0.1986
     39  NE2       -9.0340   -3.5470   18.1530 N.ar  118  HIS118     -0.2212
     40  N        -12.7530    3.6930   15.3210 N.3   120  VAL120     -0.1245
     41  CA       -11.8780    4.7170   15.9120 C.3   120  VAL120      0.1561
     42  C        -12.5400    6.0890   15.9490 C.2   120  VAL120      0.2260
     43  O        -13.0470    6.5430   14.9210 O.2   120  VAL120     -0.2867
     44  CB       -10.5480    4.7900   15.1220 C.3   120  VAL120      0.0252
     45  CG1       -9.5800    5.8030   15.7500 C.3   120  VAL120      0.0019
     46  CG2       -9.9070    3.4160   14.9610 C.3   120  VAL120      0.0019
     47  N         -8.3120   15.2820   14.8370 N.3   129  PHE129     -0.1227
     48  CA        -7.6740   14.0450   15.2430 C.3   129  PHE129      0.1736
     49  C         -6.2330   14.2860   15.6880 C.2   129  PHE129      0.2596
     50  O         -5.7510   13.6910   16.6690 O.2   129  PHE129     -0.2718
     51  CB        -7.7270   13.0470   14.0730 C.3   129  PHE129      0.0547
     52  CG        -7.0780   11.7100   14.3720 C.ar  129  PHE129     -0.0202
     53  CD1       -7.8280   10.6880   14.9520 C.ar  129  PHE129     -0.0042
     54  CD2       -5.7760   11.4330   14.0860 C.ar  129  PHE129     -0.0042
     55  CE1       -7.2330    9.4790   15.2270 C.ar  129  PHE129     -0.0003
     56  CE2       -5.1680   10.2290   14.3730 C.ar  129  PHE129     -0.0003
     57  CZ        -5.9160    9.2400   14.9390 C.ar  129  PHE129     -0.0000
     58  N         -5.4920   15.1280   14.9160 N.am  130  GLY130     -0.1957
     59  CA        -4.0990   15.3460   15.2260 C.3   130  GLY130      0.1869
     60  C         -3.8280   15.9350   16.5820 C.2   130  GLY130      0.2309
     61  O         -2.8760   15.5950   17.3100 O.2   130  GLY130     -0.2863
     62  N         -4.7130   13.2450   19.4850 N.3   133  VAL133     -0.1245
     63  CA        -3.6830   12.2400   19.8090 C.3   133  VAL133      0.1561
     64  C         -2.4840   12.8130   20.5950 C.2   133  VAL133      0.2260
     65  O         -1.4820   12.1520   20.8200 O.2   133  VAL133     -0.2867
     66  CB        -3.1780   11.4380   18.6150 C.3   133  VAL133      0.0252
     67  CG1       -4.3200   10.6580   18.0070 C.3   133  VAL133      0.0019
     68  CG2       -2.4820   12.3010   17.5600 C.3   133  VAL133      0.0019
     69  N        -11.8250    3.8860   21.1730 N.3   141  VAL141     -0.1245
     70  CA       -11.8860    2.8040   20.1690 C.3   141  VAL141      0.1561
     71  C        -12.8690    1.7620   20.6890 C.2   141  VAL141      0.2260
     72  O        -12.7460    1.2620   21.8080 O.2   141  VAL141     -0.2867
     73  CB       -10.5220    2.1940   19.7910 C.3   141  VAL141      0.0252
     74  CG1      -10.7120    1.1540   18.7130 C.3   141  VAL141      0.0019
     75  CG2       -9.5480    3.2930   19.3400 C.3   141  VAL141      0.0019
     76  N         -2.9360    3.2410   21.2570 N.3   196  LEU196     -0.1231
     77  CA        -2.9530    2.6950   19.9080 C.3   196  LEU196      0.1693
     78  C         -2.2060    1.3620   19.9400 C.2   196  LEU196      0.2593
     79  O         -1.1730    1.2110   20.6480 O.2   196  LEU196     -0.2718
     80  CB        -2.2250    3.6220   18.9030 C.3   196  LEU196      0.0284
     81  CG        -2.7430    5.0600   18.8220 C.3   196  LEU196      0.0019
     82  CD1       -1.9030    5.8610   17.8160 C.3   196  LEU196      0.0001
     83  CD2       -4.2240    5.0890   18.4710 C.3   196  LEU196      0.0001
     84  N         -2.6300    0.3800   19.1230 N.am  197  THR197     -0.1939
     85  CA        -1.9740   -0.9240   19.0930 C.3   197  THR197      0.2028
     86  C         -0.9770   -1.0500   17.9290 C.2   197  THR197      0.2643
     87  O         -0.3580   -2.1260   17.7980 O.2   197  THR197     -0.2714
     88  CB        -2.9850   -2.0700   18.9910 C.3   197  THR197      0.1808
     89  OG1       -3.5860   -2.0080   17.6840 O.3   197  THR197     -0.2208
     90  CG2       -4.0670   -2.0390   20.0690 C.3   197  THR197      0.0379
     91  N         -0.7700    0.0170   17.1610 N.am  198  THR198     -0.1937
     92  CA         0.2750    0.0710   16.1540 C.3   198  THR198      0.2013
     93  C          1.1220    1.3070   16.4260 C.2   198  THR198      0.2484
     94  O          0.6020    2.2890   16.9970 O.2   198  THR198     -0.2729
     95  CB        -0.2710    0.1560   14.7080 C.3   198  THR198      0.1807
     96  OG1       -1.2320    1.2240   14.6080 O.3   198  THR198     -0.2208
     97  CG2       -0.9710   -1.1130   14.3510 C.3   198  THR198      0.0379
     98  N          2.3810    1.3030   15.9940 N.am  199  PRO199     -0.2715
     99  CA         3.1830    2.5520   16.0270 C.3   199  PRO199      0.1521
    100  C          2.3930    3.7010   15.4630 C.2   199  PRO199      0.2440
    101  O          1.7730    3.5620   14.3940 O.2   199  PRO199     -0.2731
    102  CB         4.4070    2.1710   15.1690 C.3   199  PRO199      0.0310
    103  CG         4.5830    0.6990   15.4490 C.3   199  PRO199      0.0237
    104  CD         3.1690    0.1720   15.4280 C.3   199  PRO199      0.0939
    105  N          2.3710    4.8720   16.0940 N.am  200  PRO200     -0.2727
    106  CA         3.2340    5.2800   17.2120 C.3   200  PRO200      0.1402
    107  C          2.8200    4.9190   18.6240 C.2   200  PRO200      0.2269
    108  O          3.4740    5.4070   19.5760 O.2   200  PRO200     -0.2865
    109  CB         3.2720    6.8090   17.0120 C.3   200  PRO200      0.0296
    110  CG         1.9500    7.1580   16.4070 C.3   200  PRO200      0.0237
    111  CD         1.5780    6.0010   15.5400 C.3   200  PRO200      0.0939
    112  N          0.5540    5.5470   20.7850 N.3   202  LEU202     -0.1245
    113  CA         0.2710    6.7030   21.6450 C.3   202  LEU202      0.1561
    114  C         -0.7860    6.3740   22.6920 C.2   202  LEU202      0.2260
    115  O         -1.7790    5.6800   22.4240 O.2   202  LEU202     -0.2867
    116  CB        -0.1720    7.9180   20.8140 C.3   202  LEU202      0.0270
    117  CG         0.8350    8.3720   19.7500 C.3   202  LEU202      0.0019
    118  CD1        0.2180    9.4730   18.8750 C.3   202  LEU202      0.0001
    119  CD2        2.1380    8.8230   20.3890 C.3   202  LEU202      0.0001
    120  N        -10.4760    2.4160   25.7100 N.3   206  TRP206     -0.1241
    121  CA       -10.9250    1.2090   25.0390 C.3   206  TRP206      0.1605
    122  C        -12.2830    0.7890   25.5670 C.2   206  TRP206      0.2264
    123  O        -12.4970    0.7360   26.7800 O.2   206  TRP206     -0.2867
    124  CB        -9.8970    0.0450   25.2390 C.3   206  TRP206      0.0550
    125  CG        -8.7850    0.2070   24.2530 C.ar  206  TRP206      0.0003
    126  CD1       -7.5610    0.7880   24.4020 C.ar  206  TRP206      0.0946
    127  CD2       -8.8330   -0.2340   22.8890 C.ar  206  TRP206      0.0152
    128  NE1       -6.8560    0.7540   23.2400 N.ar  206  TRP206     -0.2442
    129  CE2       -7.6040    0.1270   22.2840 C.ar  206  TRP206      0.0810
    130  CE3       -9.8080   -0.9040   22.1190 C.ar  206  TRP206      0.0012
    131  CZ2       -7.3210   -0.1550   20.9350 C.ar  206  TRP206      0.0191
    132  CZ3       -9.5220   -1.1830   20.8010 C.ar  206  TRP206      0.0001
    133  CH2       -8.2920   -0.8120   20.2380 C.ar  206  TRP206      0.0015
@<TRIPOS>BOND
     1     5     2    1
     2     5     6    1
     3    14    11    1
     4    14    15    1
     5    11    10    1
     6    11    12    1
     7     2     3    1
     8     2     1    1
     9     6     7    1
    10     8     7    2
    11    12    13    2
    12     3     4    2
    13     7     9   am
    14    15    16   ar
    15    15    17   ar
    16    16    18   ar
    17    20    21    1
    18    17    19   ar
    19    22    21    1
    20    22    23    2
    21    21    24    1
    22    18    19   ar
    23    33    32    2
    24    24    25    1
    25    51    52    1
    26    51    48    1
    27    26    25   ar
    28    26    28   ar
    29    54    52   ar
    30    54    56   ar
    31    25    27   ar
    32    97    95    1
    33    52    53   ar
    34    56    57   ar
    35    28    29   ar
    36   101   100    2
    37    96    95    1
    38    27    29   ar
    39    95    92    1
    40    47    48    1
    41    58    59    1
    42    58    49   am
    43    43    42    2
    44    57    55   ar
    45    30    31    1
    46    53    55   ar
    47    46    44    1
    48    32    31    1
    49    44    45    1
    50    44    41    1
    51   102   103    1
    52   102    99    1
    53    59    60    1
    54    48    49    1
    55    40    41    1
    56   104   103    1
    57   104    98    1
    58   100    99    1
    59   100   105   am
    60   111   105    1
    61   111   110    1
    62    31    34    1
    63    49    50    2
    64    34    35    1
    65    41    42    1
    66    98    99    1
    67    98    93   am
    68   105   106    1
    69    92    93    1
    70    92    91    1
    71   110   109    1
    72    93    94    2
    73    60    61    2
    74    36    35   ar
    75    36    38   ar
    76    35    37   ar
    77   109   106    1
    78    91    86   am
    79   106   107    1
    80    38    39   ar
    81    68    66    1
    82    37    39   ar
    83    89    88    1
    84    87    86    2
    85    82    81    1
    86    86    85    1
    87    67    66    1
    88    83    81    1
    89    66    63    1
    90   107   108    2
    91    74    73    1
    92    81    80    1
    93   118   117    1
    94    80    77    1
    95    88    85    1
    96    88    90    1
    97    85    84    1
    98    84    78   am
    99    75    73    1
   100    62    63    1
   101   117   119    1
   102   117   116    1
   103    73    70    1
   104    63    64    1
   105    77    78    1
   106    77    76    1
   107    78    79    2
   108    70    71    1
   109    70    69    1
   110   133   132   ar
   111   133   131   ar
   112    64    65    2
   113    71    72    2
   114   112   113    1
   115   132   130   ar
   116   116   113    1
   117   131   129   ar
   118   113   114    1
   119   130   127   ar
   120   129   127   ar
   121   129   128   ar
   122   115   114    2
   123   127   125   ar
   124   128   126   ar
   125   125   126   ar
   126   125   124    1
   127   121   124    1
   128   121   122    1
   129   121   120    1
   130   122   123    2
