@<TRIPOS>MOLECULE
tmp/2fosA01.pdb
 110 115 0 0 0
SMALL
GASTEIGER

@<TRIPOS>ATOM
      1  N          8.2100    7.7950   10.5460 N.3     1  SER1       -0.1202
      2  CA         8.8920    6.5490   10.8450 C.3     1  SER1        0.2020
      3  C          8.1940    5.3440   10.1930 C.2     1  SER1        0.2619
      4  O          7.0330    5.0580   10.5150 O.2     1  SER1       -0.2717
      5  CB         9.1120    6.3570   12.3340 C.3     1  SER1        0.2103
      6  OG        10.1950    5.4880   12.6290 O.3     1  SER1       -0.2182
      7  N          8.8780    4.6210    9.3450 N.am    2  HIS2       -0.1961
      8  CA         8.6550    3.6260    8.3260 C.3     2  HIS2        0.1787
      9  C          9.3190    2.3030    8.7150 C.2     2  HIS2        0.2620
     10  O         10.0020    2.3620    9.7420 O.2     2  HIS2       -0.2715
     11  CB         9.2590    4.1330    7.0070 C.3     2  HIS2        0.0785
     12  CG        10.7000    4.5190    7.1620 C.ar    2  HIS2        0.0821
     13  ND1       11.1760    5.2450    8.2430 N.ar    2  HIS2       -0.2267
     14  CD2       11.7690    4.2830    6.3700 C.ar    2  HIS2        0.1154
     15  CE1       12.4700    5.4400    8.0770 C.ar    2  HIS2        0.1986
     16  NE2       12.8840    4.8530    6.9490 N.ar    2  HIS2       -0.2212
     17  N          9.0920    1.3260    7.7940 N.am    3  HIS3       -0.1959
     18  CA         9.7270    0.0530    8.1940 C.3     3  HIS3        0.1787
     19  C          9.2400   -0.7240    9.3980 C.2     3  HIS3        0.2620
     20  O          9.8460   -1.8290    9.5590 O.2     3  HIS3       -0.2715
     21  CB        11.2520    0.3020    8.3560 C.3     3  HIS3        0.0785
     22  CG        11.9150    0.6580    7.0540 C.ar    3  HIS3        0.0821
     23  ND1       13.2690    0.5820    6.8260 N.ar    3  HIS3       -0.2267
     24  CD2       11.3840    1.0610    5.8790 C.ar    3  HIS3        0.1154
     25  CE1       13.5870    0.9470    5.5950 C.ar    3  HIS3        0.1986
     26  NE2       12.4250    1.2400    5.0040 N.ar    3  HIS3       -0.2212
     27  N          8.3350   -0.5060   10.3060 N.am    4  TRP4       -0.1974
     28  CA         7.7530   -1.4220   11.2930 C.3     4  TRP4        0.1640
     29  C          6.7580   -2.2770   10.5460 C.2     4  TRP4        0.2290
     30  O          6.2190   -1.8940    9.5210 O.2     4  TRP4       -0.2864
     31  CB         7.0880   -0.7000   12.4690 C.3     4  TRP4        0.0576
     32  CG         5.9010    0.1510   12.0900 C.ar    4  TRP4        0.0006
     33  CD1        5.8710    1.4780   11.7310 C.ar    4  TRP4        0.0946
     34  CD2        4.5370   -0.2930   12.0400 C.ar    4  TRP4        0.0152
     35  NE1        4.5980    1.8690   11.4620 N.ar    4  TRP4       -0.2442
     36  CE2        3.7470    0.7970   11.6500 C.ar    4  TRP4        0.0810
     37  CE3        3.9090   -1.5150   12.3080 C.ar    4  TRP4        0.0012
     38  CZ2        2.3590    0.6950   11.5050 C.ar    4  TRP4        0.0191
     39  CZ3        2.5470   -1.6230   12.1620 C.ar    4  TRP4        0.0001
     40  CH2        1.7890   -0.5050   11.7590 C.ar    4  TRP4        0.0015
     41  N         11.4340   -9.7400   11.6400 N.3     9  HIS9       -0.1226
     42  CA        12.5130   -8.7480   11.7130 C.3     9  HIS9        0.1752
     43  C         12.0090   -7.3360   12.0060 C.2     9  HIS9        0.2596
     44  O         12.8150   -6.4400   12.2730 O.2     9  HIS9       -0.2718
     45  CB        13.3110   -8.8480   10.4000 C.3     9  HIS9        0.0759
     46  CG        13.8320  -10.2430   10.1810 C.ar    9  HIS9        0.0818
     47  ND1       14.8220  -10.7640   10.9960 N.ar    9  HIS9       -0.2268
     48  CD2       13.5270  -11.2470    9.3280 C.ar    9  HIS9        0.1154
     49  CE1       15.1140  -11.9950   10.6470 C.ar    9  HIS9        0.1986
     50  NE2       14.3410  -12.3270    9.6210 N.ar    9  HIS9       -0.2212
     51  N         10.7210   -7.0530   11.9450 N.am   10  ASN10      -0.1974
     52  CA        10.2240   -5.7050   12.2190 C.3    10  ASN10       0.1688
     53  C          8.9040   -5.6870   12.9990 C.2    10  ASN10       0.2292
     54  O          8.1960   -4.6600   13.0200 O.2    10  ASN10      -0.2864
     55  CB        10.0470   -4.8980   10.9280 C.3    10  ASN10       0.1181
     56  CG         8.9900   -5.4560    9.9960 C.2    10  ASN10       0.2629
     57  OD1        8.3650   -6.4910   10.2830 O.2    10  ASN10      -0.2716
     58  ND2        8.7730   -4.7530    8.9170 N.am   10  ASN10      -0.0877
     59  N         10.1800   -5.6900   18.1230 N.3    14  HIS14      -0.1226
     60  CA        11.1750   -4.6860   17.7080 C.3    14  HIS14       0.1752
     61  C         10.6800   -3.2670   17.8830 C.2    14  HIS14       0.2596
     62  O         11.5040   -2.3450   17.8310 O.2    14  HIS14      -0.2718
     63  CB        11.5120   -4.9350   16.2520 C.3    14  HIS14       0.0759
     64  CG        12.2510   -6.1720   15.9450 C.ar   14  HIS14       0.0818
     65  ND1       13.5650   -6.3740   16.0120 N.ar   14  HIS14      -0.2268
     66  CD2       11.8310   -7.3790   15.5240 C.ar   14  HIS14       0.1154
     67  CE1       14.0360   -7.4890   15.6720 C.ar   14  HIS14       0.1986
     68  NE2       12.9630   -8.1780   15.3560 N.ar   14  HIS14      -0.2212
     69  N          9.3530   -3.0400   17.9860 N.am   15  TRP15      -0.1976
     70  CA         8.8020   -1.6960   17.8960 C.3    15  TRP15       0.1640
     71  C          9.4020   -0.7450   18.9510 C.2    15  TRP15       0.2290
     72  O          9.5380    0.4600   18.6540 O.2    15  TRP15      -0.2864
     73  CB         7.2610   -1.7540   18.0700 C.3    15  TRP15       0.0576
     74  CG         6.5780   -2.4590   16.9040 C.ar   15  TRP15       0.0006
     75  CD1        7.0910   -2.9000   15.7310 C.ar   15  TRP15       0.0946
     76  CD2        5.1830   -2.7690   16.8750 C.ar   15  TRP15       0.0152
     77  NE1        6.0920   -3.4840   14.9530 N.ar   15  TRP15      -0.2442
     78  CE2        4.9130   -3.4160   15.6410 C.ar   15  TRP15       0.0810
     79  CE3        4.1030   -2.5850   17.7870 C.ar   15  TRP15       0.0012
     80  CZ2        3.6520   -3.8560   15.2860 C.ar   15  TRP15       0.0191
     81  CZ3        2.8600   -3.0260   17.4120 C.ar   15  TRP15       0.0001
     82  CH2        2.6330   -3.6400   16.2090 C.ar   15  TRP15       0.0015
     83  N         12.2840   -0.1090   19.9020 N.3    17  LYS17      -0.1231
     84  CA        13.5220    0.6150   19.5560 C.3    17  LYS17       0.1693
     85  C         13.2430    1.9590   18.8880 C.2    17  LYS17       0.2592
     86  O         14.0110    2.9150   19.0810 O.2    17  LYS17      -0.2718
     87  CB        14.3710   -0.2940   18.6420 C.3    17  LYS17       0.0285
     88  CG        14.9670   -1.4410   19.4830 C.3    17  LYS17       0.0035
     89  CD        15.7800   -2.3700   18.6160 C.3    17  LYS17       0.0206
     90  CE        14.8570   -3.3690   17.8950 C.3    17  LYS17       0.1093
     91  NZ        15.7090   -3.7010   16.7500 N.3    17  LYS17      -0.1314
     92  N         12.1860    2.0910   18.1140 N.am   18  ASP18      -0.1960
     93  CA        11.8260    3.3770   17.5150 C.3    18  ASP18       0.1840
     94  C         10.6860    4.0410   18.2560 C.2    18  ASP18       0.2622
     95  O         10.5120    5.2640   18.0570 O.2    18  ASP18      -0.2715
     96  CB        11.4680    3.2620   16.0350 C.3    18  ASP18       0.1450
     97  CG        12.7930    3.0080   15.3140 C.2    18  ASP18       0.3671
     98  OD1       13.5820    3.9360   15.0230 O.co2  18  ASP18      -0.2456
     99  OD2       13.1710    1.8570   15.1000 O.co2  18  ASP18      -0.2456
    100  N          9.9270    3.3040   19.0610 N.am   19  PHE19      -0.1974
    101  CA         8.7390    3.7780   19.7540 C.3    19  PHE19       0.1639
    102  C          8.8360    3.3280   21.2010 C.2    19  PHE19       0.2290
    103  O          8.1910    2.3480   21.5890 O.2    19  PHE19      -0.2864
    104  CB         7.4420    3.3180   19.0830 C.3    19  PHE19       0.0560
    105  CG         7.4120    3.6350   17.6020 C.ar   19  PHE19      -0.0200
    106  CD1        6.9780    4.8690   17.1680 C.ar   19  PHE19      -0.0042
    107  CD2        7.8380    2.7070   16.6570 C.ar   19  PHE19      -0.0042
    108  CE1        6.9960    5.1820   15.8040 C.ar   19  PHE19      -0.0003
    109  CE2        7.8760    3.0190   15.3070 C.ar   19  PHE19      -0.0003
    110  CZ         7.4610    4.2690   14.8900 C.ar   19  PHE19      -0.0000
@<TRIPOS>BOND
     1    26    25   ar
     2    26    24   ar
     3    25    23   ar
     4    24    22   ar
     5    14    16   ar
     6    14    12   ar
     7    23    22   ar
     8    16    15   ar
     9    11    12    1
    10    11     8    1
    11    22    21    1
    12    12    13   ar
    13    17    18    1
    14    17     9   am
    15    15    13   ar
    16    18    21    1
    17    18    19    1
    18     8     9    1
    19     8     7    1
    20     9    10    2
    21    58    56   am
    22    48    50   ar
    23    48    46   ar
    24     7     3   am
    25    19    20    2
    26    19    27   am
    27    30    29    2
    28    50    49   ar
    29    56    57    2
    30    56    55    1
    31    46    45    1
    32    46    47   ar
    33     3     4    2
    34     3     2    1
    35    27    28    1
    36    45    42    1
    37     1     2    1
    38    29    28    1
    39    49    47   ar
    40     2     5    1
    41    55    52    1
    42    28    31    1
    43    35    36   ar
    44    35    33   ar
    45    38    36   ar
    46    38    40   ar
    47    41    42    1
    48    36    34   ar
    49    42    43    1
    50    33    32   ar
    51    40    39   ar
    52    51    43   am
    53    51    52    1
    54    43    44    2
    55    34    32   ar
    56    34    37   ar
    57    32    31    1
    58    39    37   ar
    59    52    53    1
    60     5     6    1
    61    53    54    2
    62   110   109   ar
    63   110   108   ar
    64    77    78   ar
    65    77    75   ar
    66    98    97   ar
    67    99    97   ar
    68    80    78   ar
    69    80    82   ar
    70   109   107   ar
    71    97    96    1
    72    68    66   ar
    73    68    67   ar
    74    66    64   ar
    75    78    76   ar
    76    67    65   ar
    77    75    74   ar
    78   108   106   ar
    79    64    65   ar
    80    64    63    1
    81    96    93    1
    82    82    81   ar
    83    63    60    1
    84   107   105   ar
    85    91    90    1
    86    76    74   ar
    87    76    79   ar
    88    74    73    1
    89   106   105   ar
    90    81    79   ar
    91    93    92    1
    92    93    94    1
    93   105   104    1
    94    60    61    1
    95    60    59    1
    96    62    61    2
    97    61    69   am
    98    90    89    1
    99    70    69    1
   100    70    73    1
   101    70    71    1
   102    95    94    2
   103    92    85   am
   104    94   100   am
   105    89    88    1
   106    87    88    1
   107    87    84    1
   108    72    71    2
   109    85    86    2
   110    85    84    1
   111   100   101    1
   112   104   101    1
   113    84    83    1
   114   101   102    1
   115   102   103    2
