@<TRIPOS>MOLECULE
tmp/2fouA01.pdb
 119 123 0 0 0
SMALL
GASTEIGER

@<TRIPOS>ATOM
      1  N          6.6970    6.9620   11.5180 N.3     2  SER2       -0.1202
      2  CA         8.0300    6.4880   11.1000 C.3     2  SER2        0.2020
      3  C          7.8990    5.1980   10.3250 C.2     2  SER2        0.2619
      4  O          6.8670    4.5330   10.1790 O.2     2  SER2       -0.2717
      5  CB         8.9150    6.3900   12.3220 C.3     2  SER2        0.2103
      6  OG        10.1740    5.6990   12.0980 O.3     2  SER2       -0.2182
      7  N          8.9770    4.7650    9.6920 N.am    3  HIS3       -0.1961
      8  CA         8.9030    3.7240    8.6740 C.3     3  HIS3        0.1787
      9  C          9.5150    2.3940    9.0660 C.2     3  HIS3        0.2620
     10  O         10.3290    2.2750   10.0150 O.2     3  HIS3       -0.2715
     11  CB         9.6240    4.2740    7.4140 C.3     3  HIS3        0.0785
     12  CG        11.1050    4.5040    7.4900 C.ar    3  HIS3        0.0821
     13  ND1       11.7270    5.2920    8.4510 N.ar    3  HIS3       -0.2267
     14  CD2       12.1050    4.0290    6.6810 C.ar    3  HIS3        0.1154
     15  CE1       13.0240    5.2640    8.2000 C.ar    3  HIS3        0.1986
     16  NE2       13.3030    4.5150    7.1470 N.ar    3  HIS3       -0.2212
     17  N          9.1710    1.3840    8.2860 N.am    4  HIS4       -0.1959
     18  CA         9.8020    0.0380    8.4340 C.3     4  HIS4        0.1787
     19  C          9.2580   -0.8240    9.5720 C.2     4  HIS4        0.2620
     20  O          9.6820   -1.9880    9.6550 O.2     4  HIS4       -0.2715
     21  CB        11.3500    0.1400    8.3990 C.3     4  HIS4        0.0785
     22  CG        11.8630    0.4230    7.0160 C.ar    4  HIS4        0.0821
     23  ND1       13.1650    0.7510    6.7730 N.ar    4  HIS4       -0.2267
     24  CD2       11.2790    0.4220    5.7890 C.ar    4  HIS4        0.1154
     25  CE1       13.3390    0.9460    5.4720 C.ar    4  HIS4        0.1986
     26  NE2       12.2080    0.7520    4.8060 N.ar    4  HIS4       -0.2212
     27  N          8.3430   -0.4120   10.4520 N.am    5  TRP5       -0.1974
     28  CA         7.7180   -1.2800   11.4380 C.3     5  TRP5        0.1640
     29  C          6.6960   -2.1550   10.7390 C.2     5  TRP5        0.2290
     30  O          6.1150   -1.7740    9.7330 O.2     5  TRP5       -0.2864
     31  CB         7.0480   -0.5280   12.6060 C.3     5  TRP5        0.0576
     32  CG         5.8620    0.2960   12.2520 C.ar    5  TRP5        0.0006
     33  CD1        5.7850    1.5960   11.8810 C.ar    5  TRP5        0.0946
     34  CD2        4.4920   -0.2090   12.2400 C.ar    5  TRP5        0.0152
     35  NE1        4.4840    1.9540   11.6480 N.ar    5  TRP5       -0.2442
     36  CE2        3.6700    0.8640   11.8610 C.ar    5  TRP5        0.0810
     37  CE3        3.9120   -1.4650   12.5430 C.ar    5  TRP5        0.0012
     38  CZ2        2.2780    0.7430   11.7430 C.ar    5  TRP5        0.0191
     39  CZ3        2.5210   -1.5800   12.4240 C.ar    5  TRP5        0.0001
     40  CH2        1.7600   -0.4820   12.0360 C.ar    5  TRP5        0.0015
     41  N         11.3250   -9.7270   11.7170 N.3    10  HIS10      -0.1226
     42  CA        12.3700   -8.7410   11.7910 C.3    10  HIS10       0.1752
     43  C         11.9060   -7.3300   12.0630 C.2    10  HIS10       0.2596
     44  O         12.7280   -6.4500   12.2950 O.2    10  HIS10      -0.2718
     45  CB        13.2220   -8.8410   10.5110 C.3    10  HIS10       0.0759
     46  CG        13.8100  -10.2030   10.3240 C.ar   10  HIS10       0.0818
     47  ND1       13.3950  -11.1480    9.3860 N.ar   10  HIS10      -0.2268
     48  CD2       14.8390  -10.7230   11.0510 C.ar   10  HIS10       0.1154
     49  CE1       14.1940  -12.2200    9.5830 C.ar   10  HIS10       0.1986
     50  NE2       15.0510  -11.9780   10.5610 N.ar   10  HIS10      -0.2212
     51  N         10.5960   -7.0370   12.1060 N.am   11  ASN11      -0.1974
     52  CA        10.1260   -5.6990   12.3660 C.3    11  ASN11       0.1688
     53  C          8.7990   -5.6580   13.1640 C.2    11  ASN11       0.2292
     54  O          8.1340   -4.6350   13.2040 O.2    11  ASN11      -0.2864
     55  CB         9.9150   -4.8890   11.0690 C.3    11  ASN11       0.1181
     56  CG         8.8640   -5.4640   10.1760 C.2    11  ASN11       0.2629
     57  OD1        8.3020   -6.5450   10.4100 O.2    11  ASN11      -0.2716
     58  ND2        8.5400   -4.7740    9.0840 N.am   11  ASN11      -0.0877
     59  N         10.1410   -5.6640   18.2720 N.3    15  HIS15      -0.1226
     60  CA        11.1310   -4.6930   17.8410 C.3    15  HIS15       0.1752
     61  C         10.6690   -3.2520   18.0320 C.2    15  HIS15       0.2596
     62  O         11.4730   -2.3120   17.9770 O.2    15  HIS15      -0.2718
     63  CB        11.4520   -4.8980   16.3640 C.3    15  HIS15       0.0759
     64  CG        12.1810   -6.1320   16.0480 C.ar   15  HIS15       0.0818
     65  ND1       13.4560   -6.4070   16.2010 N.ar   15  HIS15      -0.2268
     66  CD2       11.7430   -7.3310   15.6270 C.ar   15  HIS15       0.1154
     67  CE1       13.9010   -7.5000   15.8420 C.ar   15  HIS15       0.1986
     68  NE2       12.8380   -8.1520   15.5040 N.ar   15  HIS15      -0.2212
     69  N          9.3160   -3.0210   18.1810 N.am   16  TRP16      -0.1976
     70  CA         8.7930   -1.6670   18.1070 C.3    16  TRP16       0.1640
     71  C          9.3990   -0.7480   19.1610 C.2    16  TRP16       0.2290
     72  O          9.5380    0.4570   18.8830 O.2    16  TRP16      -0.2864
     73  CB         7.2470   -1.7280   18.2700 C.3    16  TRP16       0.0576
     74  CG         6.5410   -2.4110   17.1340 C.ar   16  TRP16       0.0006
     75  CD1        7.0480   -2.8140   15.9320 C.ar   16  TRP16       0.0946
     76  CD2        5.1360   -2.7400   17.1200 C.ar   16  TRP16       0.0152
     77  NE1        6.0310   -3.4010   15.1810 N.ar   16  TRP16      -0.2442
     78  CE2        4.8670   -3.3560   15.8740 C.ar   16  TRP16       0.0810
     79  CE3        4.0940   -2.5750   18.0520 C.ar   16  TRP16       0.0012
     80  CZ2        3.5630   -3.8010   15.5380 C.ar   16  TRP16       0.0191
     81  CZ3        2.8300   -3.0270   17.7000 C.ar   16  TRP16       0.0001
     82  CH2        2.5780   -3.6210   16.4640 C.ar   16  TRP16       0.0015
     83  N         12.2700   -0.1240   20.0750 N.3    18  LYS18      -0.1231
     84  CA        13.5330    0.5710   19.7330 C.3    18  LYS18       0.1693
     85  C         13.2740    1.9040   19.0780 C.2    18  LYS18       0.2592
     86  O         14.1260    2.8260   19.1830 O.2    18  LYS18      -0.2718
     87  CB        14.3780   -0.3000   18.8290 C.3    18  LYS18       0.0285
     88  CG        14.9210   -1.5270   19.5940 C.3    18  LYS18       0.0035
     89  CD        15.7250   -2.4520   18.6760 C.3    18  LYS18       0.0206
     90  CE        14.7840   -3.4070   17.9540 C.3    18  LYS18       0.1093
     91  NZ        15.6300   -4.0000   16.9110 N.3    18  LYS18      -0.1314
     92  N         12.1760    2.0780   18.3420 N.am   19  ASP19      -0.1960
     93  CA        11.8340    3.3690   17.7740 C.3    19  ASP19       0.1840
     94  C         10.6750    4.0670   18.4700 C.2    19  ASP19       0.2622
     95  O         10.4940    5.2640   18.2930 O.2    19  ASP19      -0.2715
     96  CB        11.5380    3.2590   16.2640 C.3    19  ASP19       0.1450
     97  CG        12.8500    2.9740   15.5720 C.2    19  ASP19       0.3671
     98  OD1       13.6110    3.9120   15.2480 O.co2  19  ASP19      -0.2456
     99  OD2       13.2000    1.7920   15.4210 O.co2  19  ASP19      -0.2456
    100  N          9.9010    3.3510   19.2590 N.am   20  PHE20      -0.1974
    101  CA         8.7120    3.8160   19.9410 C.3    20  PHE20       0.1639
    102  C          8.8250    3.3550   21.3840 C.2    20  PHE20       0.2290
    103  O          8.1720    2.3500   21.7700 O.2    20  PHE20      -0.2864
    104  CB         7.4200    3.2790   19.2780 C.3    20  PHE20       0.0560
    105  CG         7.3720    3.6280   17.7980 C.ar   20  PHE20      -0.0200
    106  CD1        6.9230    4.8690   17.3730 C.ar   20  PHE20      -0.0042
    107  CD2        7.8060    2.7070   16.8410 C.ar   20  PHE20      -0.0042
    108  CE1        6.9500    5.1990   16.0150 C.ar   20  PHE20      -0.0003
    109  CE2        7.8340    3.0320   15.5070 C.ar   20  PHE20      -0.0003
    110  CZ         7.4130    4.2700   15.0840 C.ar   20  PHE20      -0.0000
    111  N          5.6980   -5.5370   -6.1770 N.3   234  GLU234     -0.1245
    112  CA         6.6490   -6.0600   -5.2100 C.3   234  GLU234      0.1567
    113  C          6.3780   -7.5140   -4.8450 C.2   234  GLU234      0.2260
    114  O          5.2680   -7.9760   -5.1400 O.2   234  GLU234     -0.2867
    115  CB         6.5900   -5.2470   -3.9150 C.3   234  GLU234      0.0388
    116  CG         6.8660   -3.7710   -4.1970 C.3   234  GLU234      0.1160
    117  CD         6.5090   -2.9080   -2.9990 C.2   234  GLU234      0.3649
    118  OE1        6.1520   -3.3930   -1.8800 O.co2 234  GLU234     -0.2457
    119  OE2        6.6400   -1.6760   -3.2370 O.co2 234  GLU234     -0.2457
@<TRIPOS>BOND
     1   111   112    1
     2   112   113    1
     3   112   115    1
     4   114   113    2
     5   116   115    1
     6   116   117    1
     7   119   117   ar
     8   117   118   ar
     9    26    25   ar
    10    26    24   ar
    11    25    23   ar
    12    24    22   ar
    13    14    16   ar
    14    14    12   ar
    15    23    22   ar
    16    22    21    1
    17    16    15   ar
    18    11    12    1
    19    11     8    1
    20    12    13   ar
    21    15    13   ar
    22    17    18    1
    23    17     9   am
    24    21    18    1
    25    18    19    1
    26     8     9    1
    27     8     7    1
    28     9    10    2
    29    58    56   am
    30    47    49   ar
    31    47    46   ar
    32    19    20    2
    33    19    27   am
    34    49    50   ar
    35     7     3   am
    36    30    29    2
    37    56    57    2
    38    56    55    1
    39     4     3    2
    40    46    45    1
    41    46    48   ar
    42     3     2    1
    43    27    28    1
    44    45    42    1
    45    50    48   ar
    46    29    28    1
    47    55    52    1
    48     2     1    1
    49     2     5    1
    50    28    31    1
    51    35    36   ar
    52    35    33   ar
    53    41    42    1
    54    38    36   ar
    55    38    40   ar
    56    42    43    1
    57    36    34   ar
    58    33    32   ar
    59    40    39   ar
    60    43    51   am
    61    43    44    2
    62     6     5    1
    63    51    52    1
    64    34    32   ar
    65    34    37   ar
    66    32    31    1
    67    52    53    1
    68    39    37   ar
    69    53    54    2
    70   110   109   ar
    71   110   108   ar
    72    77    78   ar
    73    77    75   ar
    74    98    97   ar
    75    99    97   ar
    76    68    66   ar
    77    68    67   ar
    78   109   107   ar
    79    80    78   ar
    80    80    82   ar
    81    97    96    1
    82    66    64   ar
    83    67    65   ar
    84    78    76   ar
    85    75    74   ar
    86   108   106   ar
    87    64    65   ar
    88    64    63    1
    89    96    93    1
    90    63    60    1
    91    82    81   ar
    92   107   105   ar
    93    91    90    1
    94    76    74   ar
    95    76    79   ar
    96    74    73    1
    97   106   105   ar
    98    81    79   ar
    99    93    92    1
   100    93    94    1
   101   105   104    1
   102    60    61    1
   103    60    59    1
   104    90    89    1
   105    62    61    2
   106    61    69   am
   107    70    69    1
   108    70    73    1
   109    70    71    1
   110    95    94    2
   111    92    85   am
   112    94   100   am
   113    89    88    1
   114    87    88    1
   115    87    84    1
   116    72    71    2
   117    85    86    2
   118    85    84    1
   119   100   101    1
   120   104   101    1
   121    84    83    1
   122   101   102    1
   123   102   103    2
