@<TRIPOS>MOLECULE
tmp/2fovA00.pdb
 167 163 0 0 0
SMALL
GASTEIGER

@<TRIPOS>ATOM
      1  N          6.9220    6.3010   11.9750 N.3     1  SER1       -0.1217
      2  CA         8.1710    6.0230   11.2700 C.3     1  SER1        0.1889
      3  C          7.8310    4.9790   10.2000 C.2     1  SER1        0.2288
      4  O          6.6660    4.5540   10.1430 O.2     1  SER1       -0.2866
      5  CB         9.2450    5.5130   12.2100 C.3     1  SER1        0.2089
      6  OG         9.5960    6.3730   13.2790 O.3     1  SER1       -0.2183
      7  N          8.4280   -0.5350   10.2140 N.3     4  TRP4       -0.1241
      8  CA         7.8280   -1.4290   11.1990 C.3     4  TRP4        0.1605
      9  C          6.7850   -2.3220   10.5380 C.2     4  TRP4        0.2264
     10  O          6.2190   -1.9480    9.5170 O.2     4  TRP4       -0.2867
     11  CB         7.1660   -0.7230   12.3890 C.3     4  TRP4        0.0550
     12  CG         5.9770    0.0990   12.0360 C.ar    4  TRP4        0.0003
     13  CD1        5.9650    1.4070   11.6640 C.ar    4  TRP4        0.0946
     14  CD2        4.6070   -0.3510   12.0170 C.ar    4  TRP4        0.0152
     15  NE1        4.6900    1.7990   11.4210 N.ar    4  TRP4       -0.2442
     16  CE2        3.8100    0.7480   11.6280 C.ar    4  TRP4        0.0810
     17  CE3        3.9950   -1.5790   12.3190 C.ar    4  TRP4        0.0012
     18  CZ2        2.4290    0.6410   11.5140 C.ar    4  TRP4        0.0191
     19  CZ3        2.6150   -1.6550   12.1910 C.ar    4  TRP4        0.0001
     20  CH2        1.8500   -0.5550   11.7980 C.ar    4  TRP4        0.0015
     21  N         -3.4480    0.5040    3.7530 N.3    61  ASN61      -0.1240
     22  CA        -2.3340    1.3390    4.2200 C.3    61  ASN61       0.1653
     23  C         -1.0670    0.5380    4.4760 C.2    61  ASN61       0.2266
     24  O         -0.0830    1.0370    5.0410 O.2    61  ASN61      -0.2867
     25  CB        -2.7120    2.1480    5.4610 C.3    61  ASN61       0.1155
     26  CG        -3.0710    1.2810    6.6470 C.2    61  ASN61       0.2627
     27  OD1       -2.6680    0.1170    6.7140 O.2    61  ASN61      -0.2716
     28  ND2       -3.8310    1.8480    7.5710 N.am   61  ASN61      -0.0877
     29  N         -0.6980   -2.0390    6.4870 N.3    63  HIS63      -0.1241
     30  CA        -0.7790   -2.8320    7.7220 C.3    63  HIS63       0.1621
     31  C         -2.2060   -3.3320    7.9840 C.2    63  HIS63       0.2264
     32  O         -2.3510   -4.3470    8.6800 O.2    63  HIS63      -0.2867
     33  CB        -0.2050   -2.0920    8.9130 C.3    63  HIS63       0.0745
     34  CG        -0.7640   -0.8230    9.4030 C.ar   63  HIS63       0.0817
     35  ND1       -1.7890   -0.7890   10.3420 N.ar   63  HIS63      -0.2268
     36  CD2       -0.4630    0.4740    9.2070 C.ar   63  HIS63       0.1154
     37  CE1       -2.1110    0.4420   10.6520 C.ar   63  HIS63       0.1986
     38  NE2       -1.3200    1.2500    9.9760 N.ar   63  HIS63      -0.2212
     39  N         -8.4490    0.5700    5.9530 N.3    66  ASN66      -0.1240
     40  CA        -9.2740    1.5140    6.6910 C.3    66  ASN66       0.1653
     41  C        -10.4850    1.9180    5.8470 C.2    66  ASN66       0.2266
     42  O        -10.3120    2.3230    4.6900 O.2    66  ASN66      -0.2867
     43  CB        -8.5030    2.7520    7.0970 C.3    66  ASN66       0.1155
     44  CG        -7.4860    2.7130    8.1660 C.2    66  ASN66       0.2627
     45  OD1       -6.8400    3.7000    8.5550 O.2    66  ASN66      -0.2716
     46  ND2       -7.2750    1.5640    8.6810 N.am   66  ASN66      -0.0877
     47  N        -12.6070    6.3680   11.3190 N.3    91  GLN91      -0.1245
     48  CA       -12.2860    5.2320   10.4780 C.3    91  GLN91       0.1566
     49  C        -12.5860    3.9520   11.2610 C.2    91  GLN91       0.2260
     50  O        -12.6460    3.9800   12.4670 O.2    91  GLN91      -0.2867
     51  CB       -10.8350    5.2080   10.0020 C.3    91  GLN91       0.0367
     52  CG        -9.7720    5.3000   11.0910 C.3    91  GLN91       0.0905
     53  CD        -9.0740    4.0200   11.3740 C.2    91  GLN91       0.2608
     54  OE1       -9.6180    2.9140   11.2800 O.2    91  GLN91      -0.2717
     55  NE2       -7.8160    4.0820   11.8290 N.am   91  GLN91      -0.0878
     56  N        -11.2180   -0.3580   11.0030 N.3    93  HIS93      -0.1241
     57  CA       -10.3450   -1.3330   10.3980 C.3    93  HIS93       0.1621
     58  C        -10.4460   -2.6240   11.2560 C.2    93  HIS93       0.2264
     59  O        -11.0640   -2.6180   12.2880 O.2    93  HIS93      -0.2867
     60  CB        -8.8860   -0.8970   10.3440 C.3    93  HIS93       0.0745
     61  CG        -8.3450   -0.6210   11.6990 C.ar   93  HIS93       0.0817
     62  ND1       -8.5160    0.6090   12.3150 N.ar   93  HIS93      -0.2268
     63  CD2       -7.7220   -1.4090   12.5880 C.ar   93  HIS93       0.1154
     64  CE1       -7.9830    0.5360   13.5200 C.ar   93  HIS93       0.1986
     65  NE2       -7.4980   -0.6780   13.7530 N.ar   93  HIS93      -0.2212
     66  N         -8.0400   -6.3700   12.5220 N.3    95  HIS95      -0.1241
     67  CA        -6.8500   -7.1820   12.6940 C.3    95  HIS95       0.1621
     68  C         -7.2800   -8.6500   12.5870 C.2    95  HIS95       0.2264
     69  O         -8.3590   -8.9880   13.0760 O.2    95  HIS95      -0.2867
     70  CB        -6.1620   -6.9420   14.0560 C.3    95  HIS95       0.0745
     71  CG        -5.8860   -5.4990   14.3030 C.ar   95  HIS95       0.0817
     72  ND1       -4.6530   -4.9340   14.1500 N.ar   95  HIS95      -0.2268
     73  CD2       -6.6520   -4.4760   14.7250 C.ar   95  HIS95       0.1154
     74  CE1       -4.7110   -3.6250   14.4560 C.ar   95  HIS95       0.1986
     75  NE2       -5.9640   -3.2990   14.7750 N.ar   95  HIS95      -0.2212
     76  N        -12.0220   -2.5380   14.9770 N.3   118  HIS118     -0.1241
     77  CA       -11.7660   -1.3070   15.6990 C.3   118  HIS118      0.1621
     78  C        -12.4500   -0.1300   15.0170 C.2   118  HIS118      0.2264
     79  O        -12.0630    0.2220   13.9110 O.2   118  HIS118     -0.2867
     80  CB       -10.2560   -1.0450   15.7790 C.3   118  HIS118      0.0745
     81  CG        -9.5490   -2.0530   16.6780 C.ar  118  HIS118      0.0817
     82  ND1       -8.1920   -2.2330   16.6530 N.ar  118  HIS118     -0.2268
     83  CD2      -10.0680   -2.8580   17.6250 C.ar  118  HIS118      0.1154
     84  CE1       -7.8890   -3.1820   17.5620 C.ar  118  HIS118      0.1986
     85  NE2       -9.0030   -3.5620   18.1560 N.ar  118  HIS118     -0.2212
     86  N        -12.7190    3.7070   15.3430 N.3   120  VAL120     -0.1245
     87  CA       -11.8440    4.7200   15.9150 C.3   120  VAL120      0.1561
     88  C        -12.5310    6.0760   15.9670 C.2   120  VAL120      0.2260
     89  O        -13.0310    6.5700   14.9410 O.2   120  VAL120     -0.2867
     90  CB       -10.5370    4.8090   15.1400 C.3   120  VAL120      0.0252
     91  CG1       -9.5340    5.8180   15.7160 C.3   120  VAL120      0.0019
     92  CG2       -9.8820    3.4340   15.0040 C.3   120  VAL120      0.0019
     93  N         -8.3620   15.1170   14.8110 N.3   129  PHE129     -0.1241
     94  CA        -7.6940   13.9050   15.2300 C.3   129  PHE129      0.1605
     95  C         -6.2530   14.1830   15.6550 C.2   129  PHE129      0.2264
     96  O         -5.7860   13.6030   16.6390 O.2   129  PHE129     -0.2867
     97  CB        -7.7860   12.8880   14.0850 C.3   129  PHE129      0.0534
     98  CG        -7.1690   11.5490   14.4290 C.ar  129  PHE129     -0.0203
     99  CD1       -7.8780   10.5240   15.0310 C.ar  129  PHE129     -0.0042
    100  CD2       -5.8180   11.3050   14.1560 C.ar  129  PHE129     -0.0042
    101  CE1       -7.3290    9.2910   15.3590 C.ar  129  PHE129     -0.0003
    102  CE2       -5.2750   10.0830   14.4650 C.ar  129  PHE129     -0.0003
    103  CZ        -5.9900    9.0680   15.0560 C.ar  129  PHE129     -0.0000
    104  N        -11.8190    3.8910   21.1780 N.3   141  VAL141     -0.1245
    105  CA       -11.8940    2.8380   20.1780 C.3   141  VAL141      0.1561
    106  C        -12.8550    1.7770   20.7030 C.2   141  VAL141      0.2260
    107  O        -12.7350    1.2970   21.8170 O.2   141  VAL141     -0.2867
    108  CB       -10.5400    2.2480   19.8200 C.3   141  VAL141      0.0252
    109  CG1      -10.7080    1.2350   18.6680 C.3   141  VAL141      0.0019
    110  CG2       -9.5750    3.3190   19.3650 C.3   141  VAL141      0.0019
    111  N         -2.9480    3.2420   21.2550 N.3   196  LEU196     -0.1231
    112  CA        -2.9560    2.6910   19.9110 C.3   196  LEU196      0.1693
    113  C         -2.2120    1.3770   19.9280 C.2   196  LEU196      0.2593
    114  O         -1.1820    1.2490   20.6350 O.2   196  LEU196     -0.2718
    115  CB        -2.2650    3.6420   18.9000 C.3   196  LEU196      0.0284
    116  CG        -2.8040    5.0700   18.8400 C.3   196  LEU196      0.0019
    117  CD1       -1.9720    5.8760   17.8350 C.3   196  LEU196      0.0001
    118  CD2       -4.2430    5.0940   18.4390 C.3   196  LEU196      0.0001
    119  N         -2.6270    0.3960   19.1170 N.am  197  THR197     -0.1939
    120  CA        -1.9830   -0.9210   19.0700 C.3   197  THR197      0.2028
    121  C         -0.9640   -1.0250   17.9330 C.2   197  THR197      0.2643
    122  O         -0.3980   -2.1240   17.7800 O.2   197  THR197     -0.2714
    123  CB        -3.0000   -2.0680   18.9770 C.3   197  THR197      0.1808
    124  OG1       -3.6230   -2.0180   17.7000 O.3   197  THR197     -0.2208
    125  CG2       -4.0550   -2.0060   20.0710 C.3   197  THR197      0.0379
    126  N         -0.7900    0.0130   17.1370 N.am  198  THR198     -0.1937
    127  CA         0.2780    0.0520   16.1270 C.3   198  THR198      0.2013
    128  C          1.0900    1.3200   16.3780 C.2   198  THR198      0.2484
    129  O          0.5560    2.2690   16.9670 O.2   198  THR198     -0.2729
    130  CB        -0.2210    0.1150   14.6840 C.3   198  THR198      0.1807
    131  OG1       -1.1790    1.1510   14.4870 O.3   198  THR198     -0.2208
    132  CG2       -0.9760   -1.1310   14.3240 C.3   198  THR198      0.0379
    133  N          2.3490    1.3370   15.9580 N.am  199  PRO199     -0.2715
    134  CA         3.1300    2.5900   16.0050 C.3   199  PRO199      0.1521
    135  C          2.2900    3.7350   15.4240 C.2   199  PRO199      0.2440
    136  O          1.6610    3.5240   14.3750 O.2   199  PRO199     -0.2731
    137  CB         4.3630    2.2400   15.1420 C.3   199  PRO199      0.0310
    138  CG         4.5550    0.7600   15.3800 C.3   199  PRO199      0.0237
    139  CD         3.1340    0.2120   15.4040 C.3   199  PRO199      0.0939
    140  N          2.2660    4.8840   16.0430 N.am  200  PRO200     -0.2727
    141  CA         3.1380    5.3260   17.1540 C.3   200  PRO200      0.1402
    142  C          2.7360    4.9600   18.5750 C.2   200  PRO200      0.2269
    143  O          3.3940    5.4510   19.5180 O.2   200  PRO200     -0.2865
    144  CB         3.1370    6.8470   16.9380 C.3   200  PRO200      0.0296
    145  CG         1.7850    7.1450   16.4100 C.3   200  PRO200      0.0237
    146  CD         1.4350    5.9760   15.5550 C.3   200  PRO200      0.0939
    147  N         -6.0720    6.4350   24.4160 N.3   204  VAL204     -0.1245
    148  CA        -7.2950    5.7030   24.0530 C.3   204  VAL204      0.1561
    149  C         -8.0630    5.2490   25.2810 C.2   204  VAL204      0.2260
    150  O         -7.5430    4.5580   26.1590 O.2   204  VAL204     -0.2867
    151  CB        -6.9790    4.4690   23.1820 C.3   204  VAL204      0.0252
    152  CG1       -8.2820    3.7720   22.8090 C.3   204  VAL204      0.0019
    153  CG2       -6.2010    4.8450   21.9270 C.3   204  VAL204      0.0019
    154  N        -10.4720    2.4270   25.7210 N.3   206  TRP206     -0.1241
    155  CA       -10.9030    1.2220   25.0180 C.3   206  TRP206      0.1605
    156  C        -12.2690    0.7880   25.5600 C.2   206  TRP206      0.2264
    157  O        -12.4760    0.7540   26.7770 O.2   206  TRP206     -0.2867
    158  CB        -9.8790    0.0590   25.2280 C.3   206  TRP206      0.0550
    159  CG        -8.7810    0.2230   24.2390 C.ar  206  TRP206      0.0003
    160  CD1       -7.5360    0.7980   24.3980 C.ar  206  TRP206      0.0946
    161  CD2       -8.8200   -0.2060   22.8700 C.ar  206  TRP206      0.0152
    162  NE1       -6.8440    0.7660   23.2240 N.ar  206  TRP206     -0.2442
    163  CE2       -7.5840    0.1430   22.2690 C.ar  206  TRP206      0.0810
    164  CE3       -9.7990   -0.8640   22.1100 C.ar  206  TRP206      0.0012
    165  CZ2       -7.2900   -0.1310   20.9280 C.ar  206  TRP206      0.0191
    166  CZ3       -9.4990   -1.1340   20.7920 C.ar  206  TRP206      0.0001
    167  CH2       -8.2780   -0.7720   20.2350 C.ar  206  TRP206      0.0015
@<TRIPOS>BOND
     1    21    22    1
     2    22    23    1
     3    22    25    1
     4    23    24    2
     5    42    41    2
     6    25    26    1
     7    41    40    1
     8    39    40    1
     9    29    30    1
    10    26    27    2
    11    26    28   am
    12    40    43    1
    13    43    44    1
    14    30    31    1
    15    30    33    1
    16    31    32    2
    17    44    45    2
    18    44    46   am
    19    33    34    1
    20    36    34   ar
    21    36    38   ar
    22    34    35   ar
    23    10     9    2
    24    38    37   ar
    25    51    48    1
    26    51    52    1
    27     4     3    2
    28     3     2    1
    29     7     8    1
    30    35    37   ar
    31    60    57    1
    32    60    61    1
    33    57    56    1
    34    57    58    1
    35    48    49    1
    36    48    47    1
    37     9     8    1
    38    52    53    1
    39     8    11    1
    40    58    59    2
    41    49    50    2
    42     2     1    1
    43     2     5    1
    44    54    53    2
    45    53    55   am
    46    15    16   ar
    47    15    13   ar
    48    18    16   ar
    49    18    20   ar
    50    16    14   ar
    51    13    12   ar
    52    61    62   ar
    53    61    63   ar
    54    20    19   ar
    55    14    12   ar
    56    14    17   ar
    57    12    11    1
    58    19    17   ar
    59     5     6    1
    60    62    64   ar
    61    66    67    1
    62    68    67    1
    63    68    69    2
    64    63    65   ar
    65    67    70    1
    66    64    65   ar
    67    79    78    2
    68    70    71    1
    69    97    98    1
    70    97    94    1
    71    72    71   ar
    72    72    74   ar
    73   100    98   ar
    74   100   102   ar
    75    71    73   ar
    76   132   130    1
    77   136   135    2
    78    98    99   ar
    79    74    75   ar
    80   102   103   ar
    81   131   130    1
    82   130   127    1
    83    73    75   ar
    84    93    94    1
    85    89    88    2
    86    76    77    1
    87    92    90    1
    88    78    77    1
    89    99   101   ar
    90   103   101   ar
    91    90    91    1
    92    90    87    1
    93   137   138    1
    94   137   134    1
    95    94    95    1
    96    86    87    1
    97   138   139    1
    98   139   133    1
    99   135   134    1
   100   135   140   am
   101   146   140    1
   102   146   145    1
   103    95    96    2
   104    77    80    1
   105    80    81    1
   106    87    88    1
   107   133   134    1
   108   133   128   am
   109   140   141    1
   110   127   128    1
   111   127   126    1
   112   128   129    2
   113   145   144    1
   114    82    81   ar
   115    82    84   ar
   116    81    83   ar
   117   144   141    1
   118   126   121   am
   119   141   142    1
   120    84    85   ar
   121    83    85   ar
   122   124   123    1
   123   122   121    2
   124   117   116    1
   125   121   120    1
   126   118   116    1
   127   142   143    2
   128   109   108    1
   129   116   115    1
   130   115   112    1
   131   123   120    1
   132   123   125    1
   133   120   119    1
   134   119   113   am
   135   110   108    1
   136   108   105    1
   137   112   113    1
   138   112   111    1
   139   113   114    2
   140   105   106    1
   141   105   104    1
   142   167   166   ar
   143   167   165   ar
   144   106   107    2
   145   166   164   ar
   146   165   163   ar
   147   153   151    1
   148   164   161   ar
   149   163   161   ar
   150   163   162   ar
   151   152   151    1
   152   161   159   ar
   153   151   148    1
   154   162   160   ar
   155   148   147    1
   156   148   149    1
   157   159   160   ar
   158   159   158    1
   159   155   158    1
   160   155   156    1
   161   155   154    1
   162   149   150    2
   163   156   157    2
