@<TRIPOS>MOLECULE
tmp/2fovA01.pdb
 110 115 0 0 0
SMALL
GASTEIGER

@<TRIPOS>ATOM
      1  N          6.9220    6.3010   11.9750 N.3     1  SER1       -0.1202
      2  CA         8.1710    6.0230   11.2700 C.3     1  SER1        0.2020
      3  C          7.8310    4.9790   10.2000 C.2     1  SER1        0.2619
      4  O          6.6660    4.5540   10.1430 O.2     1  SER1       -0.2717
      5  CB         9.2450    5.5130   12.2100 C.3     1  SER1        0.2103
      6  OG         9.5960    6.3730   13.2790 O.3     1  SER1       -0.2182
      7  N          8.7600    4.5830    9.3630 N.am    2  HIS2       -0.1961
      8  CA         8.6180    3.6330    8.2870 C.3     2  HIS2        0.1787
      9  C          9.2610    2.3030    8.6500 C.2     2  HIS2        0.2620
     10  O          9.9280    2.3280    9.6940 O.2     2  HIS2       -0.2715
     11  CB         9.3280    4.1670    7.0480 C.3     2  HIS2        0.0785
     12  CG        10.7130    4.7040    7.1690 C.ar    2  HIS2        0.0821
     13  ND1       11.2290    5.4860    8.1760 N.ar    2  HIS2       -0.2267
     14  CD2       11.7440    4.5380    6.3040 C.ar    2  HIS2        0.1154
     15  CE1       12.4980    5.7770    7.9420 C.ar    2  HIS2        0.1986
     16  NE2       12.8570    5.2070    6.7920 N.ar    2  HIS2       -0.2212
     17  N          9.0510    1.3590    7.7220 N.am    3  HIS3       -0.1959
     18  CA         9.6330    0.0420    8.0200 C.3     3  HIS3        0.1787
     19  C          9.4340   -0.6280    9.3920 C.2     3  HIS3        0.2620
     20  O         10.4070   -1.3830    9.6240 O.2     3  HIS3       -0.2715
     21  CB        11.1610    0.2770    7.9450 C.3     3  HIS3        0.0785
     22  CG        11.6980    0.7950    6.6500 C.ar    3  HIS3        0.0821
     23  ND1       13.0420    0.9440    6.3770 N.ar    3  HIS3       -0.2267
     24  CD2       11.0730    1.2090    5.5160 C.ar    3  HIS3        0.1154
     25  CE1       13.2230    1.4190    5.1560 C.ar    3  HIS3        0.1986
     26  NE2       12.0290    1.5830    4.6110 N.ar    3  HIS3       -0.2212
     27  N          8.4280   -0.5350   10.2140 N.am    4  TRP4       -0.1974
     28  CA         7.8280   -1.4290   11.1990 C.3     4  TRP4        0.1640
     29  C          6.7850   -2.3220   10.5380 C.2     4  TRP4        0.2290
     30  O          6.2190   -1.9480    9.5170 O.2     4  TRP4       -0.2864
     31  CB         7.1660   -0.7230   12.3890 C.3     4  TRP4        0.0576
     32  CG         5.9770    0.0990   12.0360 C.ar    4  TRP4        0.0006
     33  CD1        5.9650    1.4070   11.6640 C.ar    4  TRP4        0.0946
     34  CD2        4.6070   -0.3510   12.0170 C.ar    4  TRP4        0.0152
     35  NE1        4.6900    1.7990   11.4210 N.ar    4  TRP4       -0.2442
     36  CE2        3.8100    0.7480   11.6280 C.ar    4  TRP4        0.0810
     37  CE3        3.9950   -1.5790   12.3190 C.ar    4  TRP4        0.0012
     38  CZ2        2.4290    0.6410   11.5140 C.ar    4  TRP4        0.0191
     39  CZ3        2.6150   -1.6550   12.1910 C.ar    4  TRP4        0.0001
     40  CH2        1.8500   -0.5550   11.7980 C.ar    4  TRP4        0.0015
     41  N         11.5480   -9.6600   11.7940 N.3     9  HIS9       -0.1226
     42  CA        12.6200   -8.6610   11.9190 C.3     9  HIS9        0.1752
     43  C         12.1040   -7.2630   12.2050 C.2     9  HIS9        0.2596
     44  O         12.8950   -6.3440   12.4980 O.2     9  HIS9       -0.2718
     45  CB        13.3410   -8.6150   10.5520 C.3     9  HIS9        0.0759
     46  CG        12.4590   -7.9860    9.4940 C.ar    9  HIS9        0.0818
     47  ND1       12.6840   -6.7340    8.9480 N.ar    9  HIS9       -0.2268
     48  CD2       11.3310   -8.4390    8.8840 C.ar    9  HIS9        0.1154
     49  CE1       11.7580   -6.4540    8.0660 C.ar    9  HIS9        0.1986
     50  NE2       10.9220   -7.4780    8.0020 N.ar    9  HIS9       -0.2212
     51  N         10.8030   -6.9780   12.1050 N.am   10  ASN10      -0.1974
     52  CA        10.2800   -5.6560   12.3460 C.3    10  ASN10       0.1688
     53  C          8.9310   -5.6560   13.0860 C.2    10  ASN10       0.2292
     54  O          8.2330   -4.6450   13.0700 O.2    10  ASN10      -0.2864
     55  CB        10.0860   -4.8890   11.0270 C.3    10  ASN10       0.1181
     56  CG         9.0400   -5.5470   10.1450 C.2    10  ASN10       0.2629
     57  OD1        8.4580   -6.5720   10.4540 O.2    10  ASN10      -0.2716
     58  ND2        8.8240   -4.9280    8.9930 N.am   10  ASN10      -0.0877
     59  N         10.1950   -5.6230   18.2130 N.3    14  HIS14      -0.1226
     60  CA        11.1480   -4.6490   17.7670 C.3    14  HIS14       0.1752
     61  C         10.6460   -3.1990   17.8830 C.2    14  HIS14       0.2596
     62  O         11.4810   -2.2810   17.8370 O.2    14  HIS14      -0.2718
     63  CB        11.5340   -4.9290   16.3050 C.3    14  HIS14       0.0759
     64  CG        12.1830   -6.2420   16.0310 C.ar   14  HIS14       0.0818
     65  ND1       13.4890   -6.5770   16.1120 N.ar   14  HIS14      -0.2268
     66  CD2       11.6930   -7.4460   15.6280 C.ar   14  HIS14       0.1154
     67  CE1       13.8210   -7.7690   15.8060 C.ar   14  HIS14       0.1986
     68  NE2       12.6910   -8.3550   15.5010 N.ar   14  HIS14      -0.2212
     69  N          9.3400   -2.9870   18.0200 N.am   15  TRP15      -0.1976
     70  CA         8.7790   -1.6490   17.9460 C.3    15  TRP15       0.1640
     71  C          9.3660   -0.6800   18.9730 C.2    15  TRP15       0.2290
     72  O          9.4990    0.5220   18.6460 O.2    15  TRP15      -0.2864
     73  CB         7.2540   -1.7110   18.0380 C.3    15  TRP15       0.0576
     74  CG         6.5540   -2.4180   16.9120 C.ar   15  TRP15       0.0006
     75  CD1        7.0700   -2.8730   15.7320 C.ar   15  TRP15       0.0946
     76  CD2        5.1490   -2.7450   16.8910 C.ar   15  TRP15       0.0152
     77  NE1        6.1040   -3.4720   14.9580 N.ar   15  TRP15      -0.2442
     78  CE2        4.9080   -3.4010   15.6620 C.ar   15  TRP15       0.0810
     79  CE3        4.0800   -2.5700   17.7790 C.ar   15  TRP15       0.0012
     80  CZ2        3.6440   -3.8600   15.3150 C.ar   15  TRP15       0.0191
     81  CZ3        2.8320   -3.0250   17.4160 C.ar   15  TRP15       0.0001
     82  CH2        2.6170   -3.6620   16.1970 C.ar   15  TRP15       0.0015
     83  N         12.2240    0.0040   19.8400 N.3    17  LYS17      -0.1231
     84  CA        13.4810    0.7330   19.5070 C.3    17  LYS17       0.1693
     85  C         13.2040    2.0810   18.8630 C.2    17  LYS17       0.2592
     86  O         13.8790    3.0780   19.0890 O.2    17  LYS17      -0.2718
     87  CB        14.3710   -0.1770   18.6400 C.3    17  LYS17       0.0285
     88  CG        14.9540   -1.3300   19.4630 C.3    17  LYS17       0.0035
     89  CD        15.7220   -2.2870   18.5820 C.3    17  LYS17       0.0206
     90  CE        14.7780   -3.2890   17.8960 C.3    17  LYS17       0.1093
     91  NZ        15.6140   -3.8110   16.7850 N.3    17  LYS17      -0.1314
     92  N         12.1650    2.1920   18.0540 N.am   18  ASP18      -0.1960
     93  CA        11.7740    3.4490   17.4500 C.3    18  ASP18       0.1840
     94  C         10.6290    4.1280   18.1910 C.2    18  ASP18       0.2622
     95  O         10.4710    5.3260   18.0000 O.2    18  ASP18      -0.2715
     96  CB        11.4290    3.2070   15.9690 C.3    18  ASP18       0.1450
     97  CG        12.7520    2.9410   15.2650 C.2    18  ASP18       0.3671
     98  OD1       13.4880    3.8780   14.8640 O.co2  18  ASP18      -0.2456
     99  OD2       13.1460    1.7510   15.1700 O.co2  18  ASP18      -0.2456
    100  N          9.9060    3.3620   18.9850 N.am   19  PHE19      -0.1974
    101  CA         8.7220    3.8880   19.6860 C.3    19  PHE19       0.1639
    102  C          8.8180    3.4370   21.1340 C.2    19  PHE19       0.2290
    103  O          8.1620    2.4740   21.5270 O.2    19  PHE19      -0.2864
    104  CB         7.4150    3.4010   19.0440 C.3    19  PHE19       0.0560
    105  CG         7.3600    3.7000   17.5540 C.ar   19  PHE19      -0.0200
    106  CD1        6.9510    4.9380   17.1060 C.ar   19  PHE19      -0.0042
    107  CD2        7.7560    2.7370   16.6180 C.ar   19  PHE19      -0.0042
    108  CE1        6.9470    5.2610   15.7600 C.ar   19  PHE19      -0.0003
    109  CE2        7.7540    3.0350   15.2760 C.ar   19  PHE19      -0.0003
    110  CZ         7.3550    4.2920   14.8710 C.ar   19  PHE19      -0.0000
@<TRIPOS>BOND
     1    26    25   ar
     2    26    24   ar
     3    25    23   ar
     4    24    22   ar
     5    14    16   ar
     6    14    12   ar
     7    23    22   ar
     8    22    21    1
     9    16    15   ar
    10    11    12    1
    11    11     8    1
    12    12    13   ar
    13    17    18    1
    14    17     9   am
    15    15    13   ar
    16    21    18    1
    17    50    49   ar
    18    50    48   ar
    19    18    19    1
    20    49    47   ar
    21     8     9    1
    22     8     7    1
    23     9    10    2
    24    48    46   ar
    25    47    46   ar
    26    58    56   am
    27     7     3   am
    28    19    20    2
    29    19    27   am
    30    46    45    1
    31    30    29    2
    32     4     3    2
    33    56    57    2
    34    56    55    1
    35     3     2    1
    36    27    28    1
    37    29    28    1
    38    45    42    1
    39    55    52    1
    40    28    31    1
    41     2     1    1
    42     2     5    1
    43    35    36   ar
    44    35    33   ar
    45    38    36   ar
    46    38    40   ar
    47    36    34   ar
    48    33    32   ar
    49    41    42    1
    50    40    39   ar
    51    42    43    1
    52    34    32   ar
    53    34    37   ar
    54    32    31    1
    55    51    43   am
    56    51    52    1
    57    39    37   ar
    58    43    44    2
    59     5     6    1
    60    52    53    1
    61    54    53    2
    62    98    97   ar
    63   110   109   ar
    64   110   108   ar
    65    77    78   ar
    66    77    75   ar
    67    99    97   ar
    68    97    96    1
    69   109   107   ar
    70    80    78   ar
    71    80    82   ar
    72    68    66   ar
    73    68    67   ar
    74    66    64   ar
    75    78    76   ar
    76    75    74   ar
    77   108   106   ar
    78    67    65   ar
    79    96    93    1
    80    64    65   ar
    81    64    63    1
    82    82    81   ar
    83    63    60    1
    84   107   105   ar
    85    91    90    1
    86    76    74   ar
    87    76    79   ar
    88    74    73    1
    89   106   105   ar
    90    81    79   ar
    91    93    92    1
    92    93    94    1
    93   105   104    1
    94    60    61    1
    95    60    59    1
    96    62    61    2
    97    61    69   am
    98    90    89    1
    99    70    69    1
   100    70    73    1
   101    70    71    1
   102    95    94    2
   103    92    85   am
   104    94   100   am
   105    89    88    1
   106    87    88    1
   107    87    84    1
   108    72    71    2
   109    85    86    2
   110    85    84    1
   111   100   101    1
   112   104   101    1
   113    84    83    1
   114   101   102    1
   115   102   103    2
