@<TRIPOS>MOLECULE
tmp/2foyB02.pdb
 103 102 0 0 0
SMALL
GASTEIGER

@<TRIPOS>ATOM
      1  N        -42.6020  -10.5010  -10.3580 N.3     4  TYR4       -0.1227
      2  CA       -43.1250  -10.9520   -9.0740 C.3     4  TYR4        0.1736
      3  C        -44.1400  -12.0710   -9.2740 C.2     4  TYR4        0.2595
      4  O        -44.7520  -12.5480   -8.3170 O.2     4  TYR4       -0.2718
      5  CB       -43.7710   -9.7740   -8.3330 C.3     4  TYR4        0.0548
      6  CG       -42.7670   -8.7580   -7.8310 C.ar    4  TYR4       -0.0200
      7  CD1      -42.0840   -8.9620   -6.6340 C.ar    4  TYR4       -0.0009
      8  CD2      -42.4630   -7.6170   -8.5780 C.ar    4  TYR4       -0.0009
      9  CE1      -41.1210   -8.0580   -6.1910 C.ar    4  TYR4        0.0417
     10  CE2      -41.5020   -6.7090   -8.1470 C.ar    4  TYR4        0.0417
     11  CZ       -40.8350   -6.9330   -6.9550 C.ar    4  TYR4        0.1957
     12  OH       -39.8820   -6.0420   -6.5200 O.3     4  TYR4       -0.2866
     13  N        -44.2990  -12.4890  -10.5270 N.am    5  ASP5       -0.1960
     14  CA       -45.2340  -13.5490  -10.8820 C.3     5  ASP5        0.1840
     15  C        -44.6470  -14.9240  -10.5780 C.2     5  ASP5        0.2622
     16  O        -43.7240  -15.0500   -9.7750 O.2     5  ASP5       -0.2715
     17  CB       -45.5890  -13.4540  -12.3680 C.3     5  ASP5        0.1450
     18  CG       -46.1890  -12.1090  -12.7380 C.2     5  ASP5        0.3671
     19  OD1      -47.2750  -11.7740  -12.2160 O.co2   5  ASP5       -0.2456
     20  OD2      -45.5730  -11.3840  -13.5500 O.co2   5  ASP5       -0.2456
     21  N        -45.1850  -15.9520  -11.2250 N.am    6  ASP6       -0.1971
     22  CA       -44.7180  -17.3180  -11.0180 C.3     6  ASP6        0.1709
     23  C        -43.5820  -17.6680  -11.9760 C.2     6  ASP6        0.2293
     24  O        -42.6030  -18.3030  -11.5860 O.2     6  ASP6       -0.2864
     25  CB       -45.8780  -18.2980  -11.2090 C.3     6  ASP6        0.1436
     26  CG       -47.0840  -17.9450  -10.3580 C.2     6  ASP6        0.3671
     27  OD1      -46.9540  -17.9300   -9.1140 O.co2   6  ASP6       -0.2456
     28  OD2      -48.1610  -17.6780  -10.9330 O.co2   6  ASP6       -0.2456
     29  N        -42.5860    0.0250  -14.6300 N.3    60  GLY60      -0.1210
     30  CA       -43.1630   -1.2710  -14.9570 C.3    60  GLY60       0.1956
     31  C        -43.6300   -2.1100  -13.7850 C.2    60  GLY60       0.2611
     32  O        -44.7600   -2.5920  -13.7740 O.2    60  GLY60      -0.2717
     33  N        -42.7620   -2.2960  -12.7990 N.am   61  HIS61      -0.1975
     34  CA       -43.1120   -3.0830  -11.6230 C.3    61  HIS61       0.1656
     35  C        -43.3950   -2.1850  -10.4220 C.2    61  HIS61       0.2291
     36  O        -43.8270   -2.6590   -9.3730 O.2    61  HIS61      -0.2864
     37  CB       -41.9680   -4.0480  -11.2870 C.3    61  HIS61       0.0771
     38  CG       -40.6700   -3.3620  -10.9940 C.ar   61  HIS61       0.0820
     39  ND1      -40.3490   -2.8720   -9.7440 N.ar   61  HIS61      -0.2267
     40  CD2      -39.6280   -3.0460  -11.7990 C.ar   61  HIS61       0.1154
     41  CE1      -39.1670   -2.2850   -9.7940 C.ar   61  HIS61       0.1986
     42  NE2      -38.7070   -2.3760  -11.0300 N.ar   61  HIS61      -0.2212
     43  N        -51.5000   -7.5460   -3.3830 N.3    96  SER96      -0.1217
     44  CA       -52.7500   -7.6280   -4.1410 C.3    96  SER96       0.1889
     45  C        -54.0110   -7.2600   -3.3550 C.2    96  SER96       0.2288
     46  O        -55.0210   -6.8620   -3.9410 O.2    96  SER96      -0.2866
     47  CB       -52.9020   -9.0300   -4.7500 C.3    96  SER96       0.2089
     48  OG       -52.8830  -10.0300   -3.7500 O.3    96  SER96      -0.2183
     49  N        -48.5610   -1.8180  -15.6650 N.3   228  SER228     -0.1217
     50  CA       -47.2320   -2.3690  -15.9390 C.3   228  SER228      0.1889
     51  C        -46.8670   -2.4630  -17.4240 C.2   228  SER228      0.2288
     52  O        -45.6980   -2.6540  -17.7670 O.2   228  SER228     -0.2866
     53  CB       -47.0980   -3.7530  -15.2950 C.3   228  SER228      0.2089
     54  OG       -48.0200   -4.6740  -15.8550 O.3   228  SER228     -0.2183
     55  N        -52.6120   -3.8540  -17.8390 N.3   236  VAL236     -0.1231
     56  CA       -52.2660   -4.8890  -16.8730 C.3   236  VAL236      0.1678
     57  C        -51.8540   -4.1960  -15.5750 C.2   236  VAL236      0.2434
     58  O        -50.7170   -3.7490  -15.4280 O.2   236  VAL236     -0.2733
     59  CB       -51.0950   -5.7480  -17.3740 C.3   236  VAL236      0.0265
     60  CG1      -50.8060   -6.8610  -16.3810 C.3   236  VAL236      0.0020
     61  CG2      -51.4220   -6.3190  -18.7540 C.3   236  VAL236      0.0020
     62  N        -52.7800   -4.0980  -14.6150 N.am  237  PRO237     -0.2718
     63  CA       -52.5150   -3.4480  -13.3260 C.3   237  PRO237      0.1535
     64  C        -51.3280   -3.9940  -12.5260 C.2   237  PRO237      0.2598
     65  O        -51.0240   -5.1860  -12.5750 O.2   237  PRO237     -0.2715
     66  CB       -53.8390   -3.6240  -12.5800 C.3   237  PRO237      0.0310
     67  CG       -54.8500   -3.6510  -13.6840 C.3   237  PRO237      0.0237
     68  CD       -54.1820   -4.5440  -14.6960 C.3   237  PRO237      0.0939
     69  N        -50.6600   -3.1020  -11.7960 N.am  238  MET238     -0.1964
     70  CA       -49.5250   -3.4610  -10.9450 C.3   238  MET238      0.1736
     71  C        -50.0810   -4.0300   -9.6420 C.2   238  MET238      0.2616
     72  O        -50.1720   -3.3220   -8.6410 O.2   238  MET238     -0.2715
     73  CB       -48.6940   -2.2210  -10.6100 C.3   238  MET238      0.0427
     74  CG       -47.6150   -1.8650  -11.5990 C.3   238  MET238      0.0599
     75  SD       -46.6470   -0.4540  -10.9930 S.3   238  MET238     -0.1393
     76  CE       -46.2330    0.3220  -12.5370 C.3   238  MET238      0.0692
     77  N        -50.4330   -5.3100   -9.6560 N.am  239  GLN239     -0.1963
     78  CA       -51.0300   -5.9750   -8.5010 C.3   239  GLN239      0.1733
     79  C        -50.2020   -6.0760   -7.2230 C.2   239  GLN239      0.2616
     80  O        -50.7250   -5.8610   -6.1270 O.2   239  GLN239     -0.2715
     81  CB       -51.4910   -7.3770   -8.9080 C.3   239  GLN239      0.0408
     82  CG       -52.7900   -7.3980   -9.6900 C.3   239  GLN239      0.0908
     83  CD       -54.0040   -7.3480   -8.7860 C.2   239  GLN239      0.2608
     84  OE1      -54.3110   -8.3160   -8.0880 O.2   239  GLN239     -0.2717
     85  NE2      -54.6980   -6.2170   -8.7850 N.am  239  GLN239     -0.0878
     86  N        -48.9240   -6.4150   -7.3520 N.am  240  HIS240     -0.1959
     87  CA       -48.0630   -6.5610   -6.1800 C.3   240  HIS240      0.1787
     88  C        -46.5840   -6.5280   -6.5460 C.2   240  HIS240      0.2620
     89  O        -46.1960   -6.9330   -7.6430 O.2   240  HIS240     -0.2715
     90  CB       -48.3920   -7.8730   -5.4550 C.3   240  HIS240      0.0785
     91  CG       -48.3470   -9.0800   -6.3380 C.ar  240  HIS240      0.0821
     92  ND1      -47.1720   -9.7160   -6.6710 N.ar  240  HIS240     -0.2267
     93  CD2      -49.3330   -9.7500   -6.9830 C.ar  240  HIS240      0.1154
     94  CE1      -47.4330  -10.7250   -7.4840 C.ar  240  HIS240      0.1986
     95  NE2      -48.7370  -10.7670   -7.6890 N.ar  240  HIS240     -0.2212
     96  N        -45.7550   -6.0530   -5.6190 N.am  241  ASN241     -0.1972
     97  CA       -44.3240   -5.9720   -5.8860 C.3   241  ASN241      0.1688
     98  C        -43.4550   -6.1050   -4.6370 C.2   241  ASN241      0.2292
     99  O        -42.4200   -5.4390   -4.5230 O.2   241  ASN241     -0.2864
    100  CB       -43.9980   -4.6540   -6.6020 C.3   241  ASN241      0.1181
    101  CG       -44.5000   -3.4400   -5.8500 C.2   241  ASN241      0.2629
    102  OD1      -44.8090   -3.5180   -4.6670 O.2   241  ASN241     -0.2716
    103  ND2      -44.5720   -2.3030   -6.5360 N.am  241  ASN241     -0.0877
@<TRIPOS>BOND
     1    61    59    1
     2    55    56    1
     3    52    51    2
     4    51    50    1
     5    59    56    1
     6    59    60    1
     7    56    57    1
     8    50    49    1
     9    50    53    1
    10    54    53    1
    11    57    58    2
    12    57    62   am
    13    30    29    1
    14    30    31    1
    15    68    62    1
    16    68    67    1
    17    62    63    1
    18    31    32    2
    19    31    33   am
    20    67    66    1
    21    20    18   ar
    22    63    66    1
    23    63    64    1
    24    33    34    1
    25    18    17    1
    26    18    19   ar
    27    65    64    2
    28    76    75    1
    29    64    69   am
    30    17    14    1
    31    23    24    2
    32    23    22    1
    33    40    42   ar
    34    40    38   ar
    35    69    70    1
    36    34    37    1
    37    34    35    1
    38    74    75    1
    39    74    73    1
    40    37    38    1
    41    21    22    1
    42    21    15   am
    43    25    22    1
    44    25    26    1
    45    42    41   ar
    46    38    39   ar
    47    70    73    1
    48    70    71    1
    49    28    26   ar
    50    14    15    1
    51    14    13    1
    52    15    16    2
    53    13     3   am
    54    35    36    2
    55     1     2    1
    56    26    27   ar
    57    41    39   ar
    58    82    81    1
    59    82    83    1
    60    77    71   am
    61    77    78    1
    62    71    72    2
    63     3     2    1
    64     3     4    2
    65     2     5    1
    66    81    78    1
    67    83    85   am
    68    83    84    2
    69     8    10   ar
    70     8     6   ar
    71    78    79    1
    72     5     6    1
    73    10    11   ar
    74     6     7   ar
    75    95    94   ar
    76    95    93   ar
    77    89    88    2
    78    94    92   ar
    79    86    79   am
    80    86    87    1
    81    79    80    2
    82    93    91   ar
    83    11    12    1
    84    11     9   ar
    85    92    91   ar
    86     7     9   ar
    87   100    97    1
    88   100   101    1
    89    88    87    1
    90    88    96   am
    91   103   101   am
    92    91    90    1
    93    87    90    1
    94    97    96    1
    95    97    98    1
    96   101   102    2
    97    47    44    1
    98    47    48    1
    99    98    99    2
   100    44    43    1
   101    44    45    1
   102    46    45    2
