@<TRIPOS>MOLECULE
tmp/2foyB01.pdb
 177 175 0 0 0
SMALL
GASTEIGER

@<TRIPOS>ATOM
      1  N        -37.1260  -10.5600  -15.0480 N.3     2  TRP2       -0.1241
      2  CA       -37.5940  -10.8920  -13.7090 C.3     2  TRP2        0.1605
      3  C        -38.8800  -10.1460  -13.3760 C.2     2  TRP2        0.2264
      4  O        -39.1630   -9.0840  -13.9390 O.2     2  TRP2       -0.2867
      5  CB       -36.5320  -10.5390  -12.6640 C.3     2  TRP2        0.0550
      6  CG       -36.2660   -9.0700  -12.5640 C.ar    2  TRP2        0.0003
      7  CD1      -35.4220   -8.3320  -13.3420 C.ar    2  TRP2        0.0946
      8  CD2      -36.8860   -8.1490  -11.6580 C.ar    2  TRP2        0.0152
      9  NE1      -35.4770   -7.0060  -12.9770 N.ar    2  TRP2       -0.2442
     10  CE2      -36.3700   -6.8680  -11.9470 C.ar    2  TRP2        0.0810
     11  CE3      -37.8320   -8.2830  -10.6300 C.ar    2  TRP2        0.0012
     12  CZ2      -36.7660   -5.7220  -11.2430 C.ar    2  TRP2        0.0191
     13  CZ3      -38.2260   -7.1440   -9.9300 C.ar    2  TRP2        0.0001
     14  CH2      -37.6920   -5.8810  -10.2430 C.ar    2  TRP2        0.0015
     15  N        -41.7890    2.5070  -13.6710 N.3    59  VAL59      -0.1245
     16  CA       -40.7690    1.5510  -14.0870 C.3    59  VAL59       0.1561
     17  C        -41.2870    0.1380  -14.3650 C.2    59  VAL59       0.2260
     18  O        -40.5220   -0.8280  -14.3510 O.2    59  VAL59      -0.2867
     19  CB       -39.6040    1.4950  -13.0530 C.3    59  VAL59       0.0252
     20  CG1      -38.9730    2.8830  -12.9180 C.3    59  VAL59       0.0019
     21  CG2      -40.1060    1.0170  -11.7020 C.3    59  VAL59       0.0019
     22  N        -42.7620   -2.2960  -12.7990 N.3    61  HIS61      -0.1241
     23  CA       -43.1120   -3.0830  -11.6230 C.3    61  HIS61       0.1621
     24  C        -43.3950   -2.1850  -10.4220 C.2    61  HIS61       0.2264
     25  O        -43.8270   -2.6590   -9.3730 O.2    61  HIS61      -0.2867
     26  CB       -41.9680   -4.0480  -11.2870 C.3    61  HIS61       0.0745
     27  CG       -40.6700   -3.3620  -10.9940 C.ar   61  HIS61       0.0817
     28  ND1      -40.3490   -2.8720   -9.7440 N.ar   61  HIS61      -0.2268
     29  CD2      -39.6280   -3.0460  -11.7990 C.ar   61  HIS61       0.1154
     30  CE1      -39.1670   -2.2850   -9.7940 C.ar   61  HIS61       0.1986
     31  NE2      -38.7070   -2.3760  -11.0300 N.ar   61  HIS61      -0.2212
     32  N        -41.0980    5.3730   -9.1380 N.3    64  HIS64      -0.1241
     33  CA       -40.0760    6.0040   -8.3050 C.3    64  HIS64       0.1621
     34  C        -40.1170    7.5230   -8.4040 C.2    64  HIS64       0.2264
     35  O        -40.4380    8.0700   -9.4610 O.2    64  HIS64      -0.2867
     36  CB       -38.6730    5.5890   -8.7730 C.3    64  HIS64       0.0745
     37  CG       -38.4150    4.1170   -8.7410 C.ar   64  HIS64       0.0817
     38  ND1      -37.3580    3.5380   -9.4110 N.ar   64  HIS64      -0.2268
     39  CD2      -39.0450    3.1100   -8.0910 C.ar   64  HIS64       0.1154
     40  CE1      -37.3490    2.2380   -9.1750 C.ar   64  HIS64       0.1986
     41  NE2      -38.3620    1.9530   -8.3760 N.ar   64  HIS64      -0.2212
     42  N        -31.4750   10.0030   -2.8680 N.3    88  PHE88      -0.1227
     43  CA       -31.6180    9.9460   -4.3190 C.3    88  PHE88       0.1736
     44  C        -32.9780    9.4700   -4.8110 C.2    88  PHE88       0.2595
     45  O        -33.3390    9.7340   -5.9590 O.2    88  PHE88      -0.2718
     46  CB       -30.4860    9.1250   -4.9860 C.3    88  PHE88       0.0547
     47  CG       -30.5430    7.6330   -4.7410 C.ar   88  PHE88      -0.0202
     48  CD1      -29.9470    7.0700   -3.6160 C.ar   88  PHE88      -0.0042
     49  CD2      -31.1310    6.7870   -5.6790 C.ar   88  PHE88      -0.0042
     50  CE1      -29.9280    5.6810   -3.4330 C.ar   88  PHE88      -0.0003
     51  CE2      -31.1210    5.3990   -5.5080 C.ar   88  PHE88      -0.0003
     52  CZ       -30.5180    4.8450   -4.3840 C.ar   88  PHE88      -0.0000
     53  N        -33.7630    8.8240   -3.9480 N.am   89  GLN89      -0.1979
     54  CA       -35.0620    8.3260   -4.3910 C.3    89  GLN89       0.1601
     55  C        -35.9370    7.7550   -3.2790 C.2    89  GLN89       0.2287
     56  O        -35.4430    7.3960   -2.2150 O.2    89  GLN89      -0.2864
     57  CB       -34.8130    7.2200   -5.4250 C.3    89  GLN89       0.0394
     58  CG       -36.0300    6.4510   -5.9070 C.3    89  GLN89       0.0908
     59  CD       -35.6440    5.1360   -6.5740 C.2    89  GLN89       0.2608
     60  OE1      -35.8280    4.0570   -6.0080 O.2    89  GLN89      -0.2717
     61  NE2      -35.0880    5.2250   -7.7760 N.am   89  GLN89      -0.0878
     62  N        -39.7550    5.2430   -2.9150 N.3    91  HIS91      -0.1241
     63  CA       -40.7910    4.4750   -3.6140 C.3    91  HIS91       0.1621
     64  C        -41.5500    3.6330   -2.5910 C.2    91  HIS91       0.2264
     65  O        -41.2660    3.7050   -1.3950 O.2    91  HIS91      -0.2867
     66  CB       -40.1720    3.5510   -4.6760 C.3    91  HIS91       0.0745
     67  CG       -39.1910    2.5640   -4.1210 C.ar   91  HIS91       0.0817
     68  ND1      -37.8310    2.7850   -4.1250 N.ar   91  HIS91      -0.2268
     69  CD2      -39.3770    1.3700   -3.5060 C.ar   91  HIS91       0.1154
     70  CE1      -37.2200    1.7740   -3.5330 C.ar   91  HIS91       0.1986
     71  NE2      -38.1360    0.9030   -3.1470 N.ar   91  HIS91      -0.2212
     72  N        -43.8690   -0.3340   -1.7970 N.3    93  HIS93      -0.1241
     73  CA       -44.1170   -1.7400   -2.1200 C.3    93  HIS93       0.1621
     74  C        -45.5180   -2.0110   -1.5900 C.2    93  HIS93       0.2264
     75  O        -45.9150   -1.4370   -0.5720 O.2    93  HIS93      -0.2867
     76  CB       -43.1230   -2.6750   -1.4280 C.3    93  HIS93       0.0745
     77  CG       -41.7270   -2.5520   -1.9440 C.ar   93  HIS93       0.0817
     78  ND1      -41.2600   -3.2660   -3.0280 N.ar   93  HIS93      -0.2268
     79  CD2      -40.7110   -1.7500   -1.5550 C.ar   93  HIS93       0.1154
     80  CE1      -40.0130   -2.9080   -3.2830 C.ar   93  HIS93       0.1986
     81  NE2      -39.6590   -1.9900   -2.4030 N.ar   93  HIS93      -0.2212
     82  N        -39.9410    3.1880    1.1000 N.3   116  HIS116     -0.1241
     83  CA       -38.4830    3.0770    1.1160 C.3   116  HIS116      0.1621
     84  C        -37.8690    4.3930    0.6480 C.2   116  HIS116      0.2264
     85  O        -38.2220    4.8950   -0.4160 O.2   116  HIS116     -0.2867
     86  CB       -38.0140    1.9380    0.1970 C.3   116  HIS116      0.0745
     87  CG       -38.2410    0.5710    0.7700 C.ar  116  HIS116      0.0817
     88  ND1      -38.1110   -0.5810    0.0220 N.ar  116  HIS116     -0.2268
     89  CD2      -38.5770    0.1700    2.0190 C.ar  116  HIS116      0.1154
     90  CE1      -38.3610   -1.6310    0.7850 C.ar  116  HIS116      0.1986
     91  NE2      -38.6470   -1.2030    2.0030 N.ar  116  HIS116     -0.2212
     92  N        -34.2340    5.8830   -0.1730 N.3   118  ALA118     -0.1245
     93  CA       -32.8510    5.4690   -0.4180 C.3   118  ALA118      0.1562
     94  C        -31.8050    6.5720   -0.5330 C.2   118  ALA118      0.2260
     95  O        -32.0880    7.6590   -1.0480 O.2   118  ALA118     -0.2867
     96  CB       -32.8090    4.5970   -1.6650 C.3   118  ALA118      0.0290
     97  N        -23.5490    7.0780   -7.3840 N.3   128  LEU128     -0.1245
     98  CA       -24.4210    5.9720   -7.0140 C.3   128  LEU128      0.1561
     99  C        -23.8940    4.7110   -7.6870 C.2   128  LEU128      0.2260
    100  O        -23.8570    3.6390   -7.0860 O.2   128  LEU128     -0.2867
    101  CB       -25.8530    6.2570   -7.4810 C.3   128  LEU128      0.0270
    102  CG       -26.8810    5.1260   -7.3770 C.3   128  LEU128      0.0019
    103  CD1      -27.0460    4.7150   -5.9240 C.3   128  LEU128      0.0001
    104  CD2      -28.2150    5.5860   -7.9570 C.3   128  LEU128      0.0001
    105  N        -23.1950    1.6450   -5.2740 N.3   132  ALA132     -0.1245
    106  CA       -24.2080    0.5900   -5.3150 C.3   132  ALA132      0.1562
    107  C        -23.7730   -0.8380   -4.9960 C.2   132  ALA132      0.2260
    108  O        -24.5810   -1.6300   -4.5110 O.2   132  ALA132     -0.2867
    109  CB       -24.9160    0.6170   -6.6600 C.3   132  ALA132      0.0290
    110  N        -24.8940    1.9050    0.4180 N.3   138  LEU138     -0.1245
    111  CA       -26.2680    2.4030    0.4670 C.3   138  LEU138      0.1561
    112  C        -26.9380    2.3850    1.8470 C.2   138  LEU138      0.2260
    113  O        -26.5680    1.6050    2.7260 O.2   138  LEU138     -0.2867
    114  CB       -27.1380    1.6020   -0.5130 C.3   138  LEU138      0.0270
    115  CG       -26.6460    1.4650   -1.9590 C.3   138  LEU138      0.0019
    116  CD1      -27.6190    0.6110   -2.7660 C.3   138  LEU138      0.0001
    117  CD2      -26.5220    2.8500   -2.5950 C.3   138  LEU138      0.0001
    118  N        -31.0420    2.7010    3.3650 N.3   140  VAL140     -0.1245
    119  CA       -32.4640    2.8420    3.0760 C.3   140  VAL140      0.1561
    120  C        -33.3090    2.8360    4.3420 C.2   140  VAL140      0.2260
    121  O        -33.1390    1.9770    5.2150 O.2   140  VAL140     -0.2867
    122  CB       -32.9720    1.7070    2.1530 C.3   140  VAL140      0.0252
    123  CG1      -34.4250    1.9710    1.7500 C.3   140  VAL140      0.0019
    124  CG2      -32.0850    1.6050    0.9180 C.3   140  VAL140      0.0019
    125  N        -30.4690   -4.9310   -1.5590 N.3   195  LEU195     -0.1231
    126  CA       -31.5240   -4.3310   -2.3670 C.3   195  LEU195      0.1693
    127  C        -32.5510   -5.4650   -2.4040 C.2   195  LEU195      0.2593
    128  O        -32.1570   -6.6370   -2.4250 O.2   195  LEU195     -0.2718
    129  CB       -31.0040   -4.0470   -3.7830 C.3   195  LEU195      0.0284
    130  CG       -29.8740   -3.0170   -3.8770 C.3   195  LEU195      0.0019
    131  CD1      -29.4170   -2.8670   -5.3190 C.3   195  LEU195      0.0001
    132  CD2      -30.3740   -1.6910   -3.3390 C.3   195  LEU195      0.0001
    133  N        -33.8460   -5.1430   -2.4190 N.am  196  THR196     -0.1939
    134  CA       -34.8720   -6.1920   -2.4190 C.3   196  THR196      0.2028
    135  C        -35.3440   -6.6990   -3.7830 C.2   196  THR196      0.2642
    136  O        -36.3060   -7.4590   -3.8690 O.2   196  THR196     -0.2714
    137  CB       -36.1050   -5.7950   -1.5710 C.3   196  THR196      0.1808
    138  OG1      -36.7740   -4.6750   -2.1680 O.3   196  THR196     -0.2208
    139  CG2      -35.6660   -5.4240   -0.1580 C.3   196  THR196      0.0379
    140  N        -34.6810   -6.2550   -4.8450 N.am  197  HIS197     -0.1959
    141  CA       -34.9670   -6.7470   -6.1900 C.3   197  HIS197      0.1772
    142  C        -33.6660   -6.6020   -6.9860 C.2   197  HIS197      0.2462
    143  O        -32.7640   -5.8730   -6.5690 O.2   197  HIS197     -0.2730
    144  CB       -36.1820   -6.0310   -6.8270 C.3   197  HIS197      0.0785
    145  CG       -35.8940   -4.6890   -7.4250 C.ar  197  HIS197      0.0821
    146  ND1      -36.5100   -3.5370   -6.9820 N.ar  197  HIS197     -0.2267
    147  CD2      -35.1400   -4.3230   -8.4870 C.ar  197  HIS197      0.1154
    148  CE1      -36.1500   -2.5240   -7.7460 C.ar  197  HIS197      0.1986
    149  NE2      -35.3180   -2.9740   -8.6690 N.ar  197  HIS197     -0.2212
    150  N        -33.5270   -7.3250   -8.1110 N.am  198  PRO198     -0.2716
    151  CA       -32.3130   -7.2680   -8.9380 C.3   198  PRO198      0.1521
    152  C        -31.6910   -5.8790   -9.0540 C.2   198  PRO198      0.2440
    153  O        -32.4030   -4.8940   -9.2440 O.2   198  PRO198     -0.2731
    154  CB       -32.7950   -7.8040  -10.2820 C.3   198  PRO198      0.0310
    155  CG       -33.7940   -8.8280   -9.8740 C.3   198  PRO198      0.0237
    156  CD       -34.5740   -8.1210   -8.7810 C.3   198  PRO198      0.0939
    157  N        -30.3480   -5.7840   -8.9820 N.am  199  PRO199     -0.2727
    158  CA       -29.3390   -6.8350   -8.8150 C.3   199  PRO199      0.1402
    159  C        -29.1530   -7.4620   -7.4320 C.2   199  PRO199      0.2269
    160  O        -28.2490   -8.2810   -7.2450 O.2   199  PRO199     -0.2865
    161  CB       -28.0660   -6.1610   -9.3100 C.3   199  PRO199      0.0296
    162  CG       -28.2520   -4.7700   -8.8540 C.3   199  PRO199      0.0237
    163  CD       -29.6870   -4.4930   -9.2440 C.3   199  PRO199      0.0939
    164  N        -29.9390   -1.1650    6.4730 N.3   206  TRP206     -0.1241
    165  CA       -31.3530   -0.8640    6.6600 C.3   206  TRP206      0.1605
    166  C        -31.6850   -0.1610    7.9670 C.2   206  TRP206      0.2264
    167  O        -31.1150   -0.4600    9.0170 O.2   206  TRP206     -0.2867
    168  CB       -32.1960   -2.1450    6.5500 C.3   206  TRP206      0.0550
    169  CG       -32.3940   -2.6040    5.1360 C.ar  206  TRP206      0.0003
    170  CD1      -31.5980   -3.4550    4.4240 C.ar  206  TRP206      0.0946
    171  CD2      -33.4160   -2.1600    4.2340 C.ar  206  TRP206      0.0152
    172  NE1      -32.0590   -3.5630    3.1280 N.ar  206  TRP206     -0.2442
    173  CE2      -33.1720   -2.7760    2.9880 C.ar  206  TRP206      0.0810
    174  CE3      -34.5120   -1.2950    4.3600 C.ar  206  TRP206      0.0012
    175  CZ2      -33.9860   -2.5570    1.8720 C.ar  206  TRP206      0.0191
    176  CZ3      -35.3230   -1.0790    3.2500 C.ar  206  TRP206      0.0001
    177  CH2      -35.0530   -1.7080    2.0220 C.ar  206  TRP206      0.0015
@<TRIPOS>BOND
     1     1     2    1
     2    17    18    2
     3    17    16    1
     4    16    15    1
     5    16    19    1
     6     4     3    2
     7     2     3    1
     8     2     5    1
     9     7     9   ar
    10     7     6   ar
    11    19    20    1
    12    19    21    1
    13     9    10   ar
    14    22    23    1
    15     5     6    1
    16     6     8   ar
    17    10     8   ar
    18    10    12   ar
    19    29    31   ar
    20    29    27   ar
    21     8    11   ar
    22    23    26    1
    23    23    24    1
    24    26    27    1
    25    12    14   ar
    26    31    30   ar
    27    27    28   ar
    28    11    13   ar
    29    24    25    2
    30   154   155    1
    31   154   151    1
    32    14    13   ar
    33   155   156    1
    34    30    28   ar
    35    35    34    2
    36    38    40   ar
    37    38    37   ar
    38   161   162    1
    39   161   158    1
    40   153   152    2
    41   163   157    1
    42   163   162    1
    43    40    41   ar
    44    32    33    1
    45   152   157   am
    46   152   151    1
    47   157   158    1
    48   151   150    1
    49   158   159    1
    50   156   150    1
    51    36    37    1
    52    36    33    1
    53    37    39   ar
    54   149   147   ar
    55   149   148   ar
    56   147   145   ar
    57    34    33    1
    58    41    39   ar
    59   150   142   am
    60   104   102    1
    61    61    59   am
    62   148   146   ar
    63    99   100    2
    64    99    98    1
    65   101   102    1
    66   101    98    1
    67   159   160    2
    68   145   146   ar
    69   145   144    1
    70    97    98    1
    71   102   103    1
    72   142   143    2
    73   142   141    1
    74   144   141    1
    75   109   106    1
    76    59    60    2
    77    59    58    1
    78   141   140    1
    79    45    44    2
    80    58    57    1
    81    49    51   ar
    82    49    47   ar
    83    51    52   ar
    84    57    54    1
    85   131   130    1
    86   106   105    1
    87   106   107    1
    88   107   108    2
    89    46    47    1
    90    46    43    1
    91   140   135   am
    92    44    43    1
    93    44    53   am
    94    47    48   ar
    95    66    67    1
    96    66    63    1
    97    54    53    1
    98    54    55    1
    99    52    50   ar
   100    43    42    1
   101    68    67   ar
   102    68    70   ar
   103    67    69   ar
   104   130   129    1
   105   130   132    1
   106   136   135    2
   107   135   134    1
   108   129   126    1
   109    48    50   ar
   110    63    62    1
   111    63    64    1
   112    70    71   ar
   113    69    71   ar
   114    80    78   ar
   115    80    81   ar
   116    55    56    2
   117    78    77   ar
   118   116   115    1
   119   117   115    1
   120    64    65    2
   121   128   127    2
   122   133   134    1
   123   133   127   am
   124   134   137    1
   125   127   126    1
   126    81    79   ar
   127   126   125    1
   128   138   137    1
   129    73    72    1
   130    73    74    1
   131    73    76    1
   132   115   114    1
   133    77    79   ar
   134    77    76    1
   135    96    93    1
   136    74    75    2
   137   137   139    1
   138    95    94    2
   139    94    93    1
   140   114   111    1
   141    93    92    1
   142    85    84    2
   143    88    87   ar
   144    88    90   ar
   145    86    87    1
   146    86    83    1
   147   110   111    1
   148   111   112    1
   149    84    83    1
   150    87    89   ar
   151    90    91   ar
   152   124   122    1
   153    82    83    1
   154   123   122    1
   155   112   113    2
   156   175   177   ar
   157   175   173   ar
   158    91    89   ar
   159   177   176   ar
   160   122   119    1
   161   173   172   ar
   162   173   171   ar
   163   119   118    1
   164   119   120    1
   165   172   170   ar
   166   176   174   ar
   167   171   174   ar
   168   171   169   ar
   169   120   121    2
   170   170   169   ar
   171   169   168    1
   172   164   165    1
   173   168   165    1
   174   165   166    1
   175   166   167    2
