@<TRIPOS>MOLECULE
tmp/2fp2B00.pdb
 139 127 0 0 0
SMALL
GASTEIGER

@<TRIPOS>ATOM
      1  N         -3.6680   13.8980   22.5650 N.3    13  ARG13      -0.1245
      2  CA        -4.1060   12.8150   23.4090 C.3    13  ARG13       0.1563
      3  C         -3.1690   12.7420   24.6290 C.2    13  ARG13       0.2260
      4  O         -3.6490   12.4290   25.7260 O.2    13  ARG13      -0.2867
      5  CB        -4.0840   11.5010   22.6680 C.3    13  ARG13       0.0307
      6  CG        -4.8580   10.3920   23.2950 C.3    13  ARG13       0.0489
      7  CD        -4.3590    9.0520   22.7780 C.3    13  ARG13       0.2205
      8  NE        -5.0740    7.8610   23.1830 N.pl3  13  ARG13      -0.0865
      9  CZ        -4.8460    7.1650   24.2880 C.cat  13  ARG13       0.5346
     10  NH1       -3.9580    7.5970   25.1650 N.pl3  13  ARG13       0.1354
     11  NH2       -5.5130    6.0350   24.5120 N.pl3  13  ARG13       0.1354
     12  N         -6.5860   13.7940   33.5240 N.3    20  VAL20      -0.1245
     13  CA        -6.7980   12.4530   34.0030 C.3    20  VAL20       0.1561
     14  C         -6.0420   12.3030   35.3360 C.2    20  VAL20       0.2260
     15  O         -6.6050   11.7960   36.3260 O.2    20  VAL20      -0.2867
     16  CB        -6.3270   11.3940   33.0110 C.3    20  VAL20       0.0252
     17  CG1       -6.2190   10.0040   33.6580 C.3    20  VAL20       0.0019
     18  CG2       -7.3200   11.3070   31.8150 C.3    20  VAL20       0.0019
     19  N         -7.4880   11.5610   39.1640 N.3    24  LYS24      -0.1245
     20  CA        -7.0700   10.4060   39.9290 C.3    24  LYS24       0.1561
     21  C         -6.4200   10.8310   41.2390 C.2    24  LYS24       0.2260
     22  O         -6.5170   10.1120   42.2500 O.2    24  LYS24      -0.2867
     23  CB        -6.1090    9.5420   39.1230 C.3    24  LYS24       0.0271
     24  CG        -6.7890    8.9070   37.9550 C.3    24  LYS24       0.0035
     25  CD        -5.8020    8.1400   37.1160 C.3    24  LYS24       0.0206
     26  CE        -6.5090    7.3660   36.0420 C.3    24  LYS24       0.1093
     27  NZ        -5.5370    6.6990   35.0740 N.3    24  LYS24      -0.1314
     28  N         -2.9170    5.0840   38.8500 N.3    31  ILE31      -0.1231
     29  CA        -2.6490    5.6340   37.5200 C.3    31  ILE31       0.1692
     30  C         -2.9230    4.5970   36.4550 C.2    31  ILE31       0.2592
     31  O         -3.5560    4.9030   35.4440 O.2    31  ILE31      -0.2718
     32  CB        -1.1980    6.1490   37.4100 C.3    31  ILE31       0.0266
     33  CG1       -1.1300    7.5310   38.0850 C.3    31  ILE31       0.0019
     34  CG2       -0.7410    6.2950   35.9500 C.3    31  ILE31       0.0020
     35  CD1        0.2130    7.9350   38.4740 C.3    31  ILE31       0.0001
     36  N         -2.4250    3.3830   36.6630 N.am   32  GLU32      -0.1966
     37  CA        -2.6310    2.3150   35.6910 C.3    32  GLU32       0.1733
     38  C         -4.0010    1.6580   35.8840 C.2    32  GLU32       0.2616
     39  O         -4.4070    1.3250   37.0050 O.2    32  GLU32      -0.2715
     40  CB        -1.4830    1.3190   35.7270 C.3    32  GLU32       0.0429
     41  CG        -0.1920    1.9900   35.3470 C.3    32  GLU32       0.1163
     42  CD         0.9590    1.0410   35.1870 C.2    32  GLU32       0.3649
     43  OE1        2.0650    1.3730   35.6670 O.co2  32  GLU32      -0.2457
     44  OE2        0.7610   -0.0410   34.5790 O.co2  32  GLU32      -0.2457
     45  N         -4.7320    1.5430   34.7830 N.am   33  ASP33      -0.1971
     46  CA        -6.0480    0.9130   34.7630 C.3    33  ASP33       0.1709
     47  C         -6.0170   -0.1340   33.6630 C.2    33  ASP33       0.2293
     48  O         -6.3250    0.1460   32.4900 O.2    33  ASP33      -0.2864
     49  CB        -7.1390    1.9400   34.5020 C.3    33  ASP33       0.1436
     50  CG        -8.5500    1.3690   34.6650 C.2    33  ASP33       0.3671
     51  OD1       -8.7670    0.1720   34.3570 O.co2  33  ASP33      -0.2456
     52  OD2       -9.4380    2.1340   35.0980 O.co2  33  ASP33      -0.2456
     53  N         -9.1650   -0.6610   31.4150 N.3    36  ARG36      -0.1231
     54  CA        -9.3520    0.3740   30.3970 C.3    36  ARG36       0.1694
     55  C         -8.3360    0.2350   29.2320 C.2    36  ARG36       0.2591
     56  O         -8.6850    0.4340   28.0640 O.2    36  ARG36      -0.2718
     57  CB        -9.2700    1.7470   31.0570 C.3    36  ARG36       0.0321
     58  CG        -9.1790    2.8970   30.1070 C.3    36  ARG36       0.0489
     59  CD       -10.4140    3.0350   29.1680 C.3    36  ARG36       0.2205
     60  NE       -10.2470    4.2280   28.3510 N.pl3  36  ARG36      -0.0865
     61  CZ       -11.0670    4.6410   27.3820 C.cat  36  ARG36       0.5346
     62  NH1      -12.1470    3.9280   27.0800 N.pl3  36  ARG36       0.1354
     63  NH2      -10.7900    5.7440   26.7150 N.pl3  36  ARG36       0.1354
     64  N         -7.0940   -0.1040   29.5430 N.am   37  VAL37      -0.1980
     65  CA        -6.1040   -0.3670   28.4940 C.3    37  VAL37       0.1595
     66  C         -6.5790   -1.5490   27.6040 C.2    37  VAL37       0.2287
     67  O         -6.5620   -1.4770   26.3580 O.2    37  VAL37      -0.2864
     68  CB        -4.7180   -0.6670   29.1130 C.3    37  VAL37       0.0276
     69  CG1       -3.7290   -1.1630   28.0570 C.3    37  VAL37       0.0022
     70  CG2       -4.1820    0.5770   29.8230 C.3    37  VAL37       0.0022
     71  N         -9.5520   -0.5800   25.2930 N.3    40  GLN40      -0.1245
     72  CA        -9.1530    0.2280   24.1340 C.3    40  GLN40       0.1566
     73  C         -8.4350   -0.5970   23.0970 C.2    40  GLN40       0.2260
     74  O         -8.7060   -0.4620   21.9090 O.2    40  GLN40      -0.2867
     75  CB        -8.2640    1.3860   24.5470 C.3    40  GLN40       0.0367
     76  CG        -8.9630    2.4400   25.3590 C.3    40  GLN40       0.0905
     77  CD        -8.0130    3.5130   25.7780 C.2    40  GLN40       0.2608
     78  OE1       -7.9440    4.5560   25.1290 O.2    40  GLN40      -0.2717
     79  NE2       -7.2170    3.2490   26.8070 N.am   40  GLN40      -0.0878
     80  N         -0.1180    4.6940   25.1470 N.3    66  ILE66      -0.1245
     81  CA        -0.6760    4.4580   26.4950 C.3    66  ILE66       0.1561
     82  C          0.4270    4.5170   27.5600 C.2    66  ILE66       0.2260
     83  O          0.2940    5.2190   28.5790 O.2    66  ILE66      -0.2867
     84  CB        -1.4810    3.1460   26.5300 C.3    66  ILE66       0.0252
     85  CG1       -2.7640    3.3090   25.7210 C.3    66  ILE66       0.0019
     86  CG2       -1.8170    2.7040   27.9720 C.3    66  ILE66       0.0019
     87  CD1       -3.4520    1.9360   25.4440 C.3    66  ILE66       0.0001
     88  N          1.4470    8.0300   28.1550 N.3    69  THR69      -0.1203
     89  CA         0.3890    8.7320   28.8830 C.3    69  THR69       0.1994
     90  C          0.5570    8.4520   30.3700 C.2    69  THR69       0.2617
     91  O          0.5360    9.3690   31.1790 O.2    69  THR69      -0.2717
     92  CB        -0.9900    8.2990   28.3700 C.3    69  THR69       0.1784
     93  OG1       -1.0280    8.5170   26.9360 O.3    69  THR69      -0.2211
     94  CG2       -2.1300    9.1310   29.0060 C.3    69  THR69       0.0376
     95  N          0.7330    7.1870   30.6870 N.am   70  GLU70      -0.1979
     96  CA         0.9900    6.7780   32.0870 C.3    70  GLU70       0.1602
     97  C          2.2390    7.4640   32.6210 C.2    70  GLU70       0.2287
     98  O          2.2650    7.9330   33.7710 O.2    70  GLU70      -0.2864
     99  CB         1.0720    5.2660   32.2080 C.3    70  GLU70       0.0415
    100  CG        -0.2200    4.5910   31.9200 C.3    70  GLU70       0.1163
    101  CD        -0.1630    3.1120   31.6330 C.2    70  GLU70       0.3649
    102  OE1        0.9130    2.5390   31.3940 O.co2  70  GLU70      -0.2457
    103  OE2       -1.2570    2.5270   31.6040 O.co2  70  GLU70      -0.2457
    104  N          1.2980   10.9560   33.6510 N.3    73  GLU73      -0.1245
    105  CA         0.4940   10.9010   34.9030 C.3    73  GLU73       0.1567
    106  C          1.4060   10.6870   36.1220 C.2    73  GLU73       0.2260
    107  O          1.2970   11.4350   37.1040 O.2    73  GLU73      -0.2867
    108  CB        -0.5620    9.8420   34.8310 C.3    73  GLU73       0.0388
    109  CG        -1.5920   10.1030   33.7530 C.3    73  GLU73       0.1160
    110  CD        -2.6460    9.0380   33.6540 C.2    73  GLU73       0.3649
    111  OE1       -3.2110    8.6270   34.6930 O.co2  73  GLU73      -0.2457
    112  OE2       -2.9470    8.6080   32.4980 O.co2  73  GLU73      -0.2457
    113  N        -13.2830   11.7730   34.8510 N.3    94  LEU94      -0.1245
    114  CA       -12.5310   10.7530   34.1190 C.3    94  LEU94       0.1561
    115  C        -13.3420   10.2640   32.9020 C.2    94  LEU94       0.2260
    116  O        -12.7900   10.0670   31.8030 O.2    94  LEU94      -0.2867
    117  CB       -12.2070    9.5930   35.0570 C.3    94  LEU94       0.0270
    118  CG       -11.2900    8.4790   34.5550 C.3    94  LEU94       0.0019
    119  CD1       -9.9810    9.0400   33.9650 C.3    94  LEU94       0.0001
    120  CD2      -11.0140    7.4900   35.6740 C.3    94  LEU94       0.0001
    121  N        -12.0340   10.2400   29.1580 N.3    98  ARG98      -0.1245
    122  CA       -12.0540    8.9940   28.3990 C.3    98  ARG98       0.1563
    123  C        -12.8260    9.1350   27.0920 C.2    98  ARG98       0.2260
    124  O        -12.3880    8.6220   26.0720 O.2    98  ARG98      -0.2867
    125  CB       -12.5350    7.8330   29.2460 C.3    98  ARG98       0.0307
    126  CG       -11.5100    7.4590   30.2820 C.3    98  ARG98       0.0489
    127  CD       -11.8340    6.2260   31.0250 C.3    98  ARG98       0.2205
    128  NE       -10.6930    5.8140   31.8540 N.pl3  98  ARG98      -0.0865
    129  CZ       -10.7510    4.8610   32.7680 C.cat  98  ARG98       0.5346
    130  NH1      -11.9060    4.2370   33.0020 N.pl3  98  ARG98       0.1354
    131  NH2       -9.6700    4.5480   33.4720 N.pl3  98  ARG98       0.1354
    132  N        -10.5220   10.9270   24.7830 N.3   101  ILE101     -0.1245
    133  CA        -9.5120    9.9170   24.3390 C.3   101  ILE101      0.1561
    134  C        -10.0670    8.9720   23.2760 C.2   101  ILE101      0.2260
    135  O         -9.3890    8.6460   22.3000 O.2   101  ILE101     -0.2867
    136  CB        -8.8920    9.1300   25.5360 C.3   101  ILE101      0.0252
    137  CG1       -7.9270   10.0470   26.2560 C.3   101  ILE101      0.0019
    138  CG2       -8.2170    7.8160   25.0400 C.3   101  ILE101      0.0019
    139  CD1       -7.5020    9.5240   27.6600 C.3   101  ILE101      0.0001
@<TRIPOS>BOND
     1    74    73    2
     2   135   134    2
     3     1     2    1
     4     5     6    1
     5     5     2    1
     6     7     8    1
     7     7     6    1
     8    73    72    1
     9     8     9    2
    10   134   133    1
    11     2     3    1
    12    72    75    1
    13    72    71    1
    14     9    11    1
    15     9    10    1
    16   133   132    1
    17   133   136    1
    18    75    76    1
    19     3     4    2
    20   138   136    1
    21    78    77    2
    22    80    81    1
    23    76    77    1
    24    87    85    1
    25   136   137    1
    26    85    84    1
    27    77    79   am
    28   124   123    2
    29   137   139    1
    30    67    66    2
    31    81    84    1
    32    81    82    1
    33    84    86    1
    34    63    61    1
    35    93    92    1
    36    62    61    1
    37   123   122    1
    38    61    60    2
    39    82    83    2
    40    66    65    1
    41    69    68    1
    42    56    55    2
    43    88    89    1
    44    60    59    1
    45    92    89    1
    46    92    94    1
    47   122   121    1
    48   122   125    1
    49    65    68    1
    50    65    64    1
    51    89    90    1
    52    68    70    1
    53    59    58    1
    54    55    64   am
    55    55    54    1
    56   125   126    1
    57    58    57    1
    58   126   127    1
    59    90    95   am
    60    90    91    2
    61    54    57    1
    62    54    53    1
    63    95    96    1
    64   127   128    1
    65   102   101   ar
    66   103   101   ar
    67   101   100    1
    68   116   115    2
    69    18    16    1
    70   128   129    2
    71   100    99    1
    72    96    99    1
    73    96    97    1
    74    48    47    2
    75   112   110   ar
    76    97    98    2
    77   129   130    1
    78   129   131    1
    79   115   114    1
    80    16    17    1
    81    16    13    1
    82    12    13    1
    83   104   105    1
    84   110   109    1
    85   110   111   ar
    86    47    46    1
    87   109   108    1
    88   119   118    1
    89    13    14    1
    90   114   113    1
    91   114   117    1
    92    51    50   ar
    93    49    50    1
    94    49    46    1
    95   118   117    1
    96   118   120    1
    97    44    42   ar
    98    50    52   ar
    99    46    45    1
   100    45    38   am
   101   108   105    1
   102   105   106    1
   103    27    26    1
   104    42    41    1
   105    42    43   ar
   106    14    15    2
   107    41    40    1
   108    31    30    2
   109    37    40    1
   110    37    38    1
   111    37    36    1
   112    38    39    2
   113    34    32    1
   114    26    25    1
   115   106   107    2
   116    30    36   am
   117    30    29    1
   118    25    24    1
   119    32    29    1
   120    32    33    1
   121    29    28    1
   122    24    23    1
   123    33    35    1
   124    23    20    1
   125    19    20    1
   126    20    21    1
   127    21    22    2
