@<TRIPOS>MOLECULE
tmp/2fp4B00.pdb
 175 163 0 0 0
SMALL
GASTEIGER

@<TRIPOS>ATOM
      1  N         93.9400   44.8050  -16.1400 N.3    20  GLN20      -0.1245
      2  CA        94.4980   43.4710  -16.0830 C.3    20  GLN20       0.1566
      3  C         93.4170   42.4480  -16.3540 C.2    20  GLN20       0.2260
      4  O         92.2880   42.6240  -15.8770 O.2    20  GLN20      -0.2867
      5  CB        94.9990   43.2160  -14.6940 C.3    20  GLN20       0.0367
      6  CG        96.2550   43.9090  -14.4480 C.3    20  GLN20       0.0905
      7  CD        96.4760   44.1000  -12.9880 C.2    20  GLN20       0.2608
      8  OE1       95.8180   44.9520  -12.3380 O.2    20  GLN20      -0.2717
      9  NE2       97.3830   43.3130  -12.4360 N.am   20  GLN20      -0.0878
     10  N        102.2760   35.3480  -13.0300 N.3    42  GLU42      -0.1245
     11  CA       101.9660   35.7040  -11.6670 C.3    42  GLU42       0.1567
     12  C        100.5360   36.2010  -11.6230 C.2    42  GLU42       0.2260
     13  O        100.0790   36.8970  -12.5270 O.2    42  GLU42      -0.2867
     14  CB       102.9320   36.7860  -11.1610 C.3    42  GLU42       0.0388
     15  CG       102.9650   36.8240   -9.6110 C.3    42  GLU42       0.1160
     16  CD       103.9930   37.7830   -9.0260 C.2    42  GLU42       0.3649
     17  OE1      104.2490   38.8570   -9.6020 O.co2  42  GLU42      -0.2457
     18  OE2      104.5260   37.4730   -7.9610 O.co2  42  GLU42      -0.2457
     19  N         97.3680   38.0070   -9.1910 N.3    44  VAL44      -0.1245
     20  CA        97.0940   38.8790   -8.0410 C.3    44  VAL44       0.1561
     21  C         95.7150   38.4280   -7.5980 C.2    44  VAL44       0.2260
     22  O         94.7900   38.3650   -8.4260 O.2    44  VAL44      -0.2867
     23  CB        96.7930   40.3920   -8.3220 C.3    44  VAL44       0.0252
     24  CG1       97.4160   41.2630   -7.2200 C.3    44  VAL44       0.0019
     25  CG2       97.0930   40.7880   -9.7000 C.3    44  VAL44       0.0019
     26  N         92.6490   39.4750   -5.1000 N.3    46  LYS46      -0.1245
     27  CA        92.1300   40.6230   -4.3540 C.3    46  LYS46       0.1561
     28  C         90.7480   40.3940   -3.8710 C.2    46  LYS46       0.2260
     29  O         89.8320   40.0920   -4.6640 O.2    46  LYS46      -0.2867
     30  CB        92.1460   41.8970   -5.2120 C.3    46  LYS46       0.0271
     31  CG        93.5190   42.2360   -5.7700 C.3    46  LYS46       0.0035
     32  CD        93.5020   43.2560   -6.9320 C.3    46  LYS46       0.0206
     33  CE        93.5160   44.6680   -6.4280 C.3    46  LYS46       0.1093
     34  NZ        93.8790   45.6370   -7.5080 N.3    46  LYS46      -0.1314
     35  N         88.6110   50.9270    0.6280 N.3    52  GLY52      -0.1210
     36  CA        89.9740   50.8550    0.1190 C.3    52  GLY52       0.1956
     37  C         90.9030   50.3790    1.2520 C.2    52  GLY52       0.2612
     38  O         90.4200   50.0360    2.3580 O.2    52  GLY52      -0.2717
     39  N         92.2160   50.3580    0.9950 N.am   53  GLY53      -0.1942
     40  CA        93.1780   49.8800    1.9900 C.3    53  GLY53       0.2014
     41  C         93.1990   48.3470    2.1620 C.2    53  GLY53       0.2639
     42  O         93.7490   47.8200    3.1460 O.2    53  GLY53      -0.2714
     43  N         92.6320   47.6320    1.1930 N.am   54  ARG54      -0.1963
     44  CA        92.5580   46.1590    1.2420 C.3    54  ARG54       0.1729
     45  C         93.9470   45.5480    1.3530 C.2    54  ARG54       0.2617
     46  O         94.1600   44.5160    1.9740 O.2    54  ARG54      -0.2715
     47  CB        91.8760   45.6420   -0.0270 C.3    54  ARG54       0.0348
     48  CG        90.3600   45.8600   -0.0460 C.3    54  ARG54       0.0492
     49  CD        89.7950   45.4410   -1.4350 C.3    54  ARG54       0.2205
     50  NE        90.3940   46.2810   -2.4930 N.pl3  54  ARG54      -0.0865
     51  CZ        90.3330   46.0270   -3.7880 C.cat  54  ARG54       0.5346
     52  NH1       89.6970   44.9470   -4.2270 N.pl3  54  ARG54       0.1354
     53  NH2       90.9200   46.8580   -4.6360 N.pl3  54  ARG54       0.1354
     54  N         94.9070   46.1980    0.7330 N.am   55  GLY55      -0.1940
     55  CA        96.2560   45.6510    0.7770 C.3    55  GLY55       0.2014
     56  C         96.8840   45.4670    2.1580 C.2    55  GLY55       0.2638
     57  O         97.7310   44.6040    2.3410 O.2    55  GLY55      -0.2714
     58  N         96.4310   46.2490    3.1320 N.am   56  LYS56      -0.1977
     59  CA        96.9840   46.1980    4.4670 C.3    56  LYS56       0.1596
     60  C         95.9330   45.7680    5.4380 C.2    56  LYS56       0.2287
     61  O         96.1520   45.7920    6.6390 O.2    56  LYS56      -0.2864
     62  CB        97.5410   47.5880    4.8420 C.3    56  LYS56       0.0298
     63  CG        98.7310   47.9420    3.9520 C.3    56  LYS56       0.0038
     64  CD        99.2160   49.3940    3.9850 C.3    56  LYS56       0.0206
     65  CE       100.4690   49.4630    3.0880 C.3    56  LYS56       0.1093
     66  NZ       100.9600   50.8180    2.7030 N.3    56  LYS56      -0.1314
     67  N         95.2400   41.7630   -0.6100 N.3    67  VAL67      -0.1245
     68  CA        95.7500   41.7040   -1.9740 C.3    67  VAL67       0.1561
     69  C         97.0430   40.8550   -1.9580 C.2    67  VAL67       0.2260
     70  O         98.0040   41.1920   -1.2830 O.2    67  VAL67      -0.2867
     71  CB        96.0570   43.1420   -2.5100 C.3    67  VAL67       0.0252
     72  CG1       96.6290   43.0840   -3.8960 C.3    67  VAL67       0.0019
     73  CG2       94.7750   43.9890   -2.5360 C.3    67  VAL67       0.0019
     74  N        100.0460   38.3870   -4.1970 N.3    69  LEU69      -0.1245
     75  CA       100.6780   37.9500   -5.4300 C.3    69  LEU69       0.1561
     76  C        101.2190   36.5590   -5.1640 C.2    69  LEU69       0.2260
     77  O        101.7450   36.2710   -4.0900 O.2    69  LEU69      -0.2867
     78  CB       101.8430   38.8570   -5.7980 C.3    69  LEU69       0.0270
     79  CG       101.4530   40.3160   -6.0660 C.3    69  LEU69       0.0019
     80  CD1      102.7170   41.1770   -6.1210 C.3    69  LEU69       0.0001
     81  CD2      100.7020   40.4390   -7.3690 C.3    69  LEU69       0.0001
     82  N         89.7830   51.7030    6.4680 N.3    92  GLN92      -0.1245
     83  CA        88.5620   52.3590    5.9840 C.3    92  GLN92       0.1566
     84  C         87.2470   51.6340    6.2920 C.2    92  GLN92       0.2260
     85  O         86.1870   52.0590    5.8430 O.2    92  GLN92      -0.2867
     86  CB        88.6480   52.5940    4.4690 C.3    92  GLN92       0.0367
     87  CG        89.6450   53.6740    4.0430 C.3    92  GLN92       0.0905
     88  CD        89.7870   53.7730    2.5210 C.2    92  GLN92       0.2608
     89  OE1       88.8060   53.6310    1.7740 O.2    92  GLN92      -0.2717
     90  NE2       91.0100   54.0290    2.0580 N.am   92  GLN92      -0.0878
     91  N         98.7750   39.2400  -12.6480 N.3   108  ALA108     -0.1231
     92  CA        99.6710   40.2490  -12.1220 C.3   108  ALA108      0.1694
     93  C        100.5890   40.6990  -13.2620 C.2   108  ALA108      0.2592
     94  O        100.9250   39.9240  -14.1680 O.2   108  ALA108     -0.2718
     95  CB       100.4870   39.6960  -10.9760 C.3   108  ALA108      0.0304
     96  N        100.9940   41.9500  -13.2330 N.am  109  LEU109     -0.1966
     97  CA       101.8800   42.4380  -14.2760 C.3   109  LEU109      0.1728
     98  C        103.0360   43.0410  -13.5130 C.2   109  LEU109      0.2616
     99  O        102.8980   43.3370  -12.3300 O.2   109  LEU109     -0.2715
    100  CB       101.1760   43.5160  -15.1340 C.3   109  LEU109      0.0311
    101  CG        99.9630   43.0650  -15.9660 C.3   109  LEU109      0.0022
    102  CD1       99.3050   44.2800  -16.5820 C.3   109  LEU109      0.0001
    103  CD2      100.3860   42.0140  -17.0960 C.3   109  LEU109      0.0001
    104  N        104.1980   43.1840  -14.1350 N.am  110  ASP110     -0.1957
    105  CA       105.2730   43.8340  -13.4120 C.3   110  ASP110      0.1840
    106  C        105.0030   45.2910  -13.6160 C.2   110  ASP110      0.2621
    107  O        104.5860   45.7280  -14.6910 O.2   110  ASP110     -0.2715
    108  CB       106.6450   43.5060  -13.9820 C.3   110  ASP110      0.1450
    109  CG       107.0280   42.0930  -13.7380 C.2   110  ASP110      0.3671
    110  OD1      106.6390   41.5400  -12.6720 O.co2 110  ASP110     -0.2456
    111  OD2      107.7200   41.5370  -14.6120 O.co2 110  ASP110     -0.2456
    112  N        105.2940   46.0400  -12.5790 N.am  111  ILE111     -0.1977
    113  CA       105.0730   47.4740  -12.5650 C.3   111  ILE111      0.1596
    114  C        106.4010   48.1670  -12.6610 C.2   111  ILE111      0.2287
    115  O        107.2120   48.0600  -11.7660 O.2   111  ILE111     -0.2864
    116  CB       104.3540   47.8380  -11.2650 C.3   111  ILE111      0.0276
    117  CG1      103.0350   47.0540  -11.2070 C.3   111  ILE111      0.0022
    118  CG2      104.1290   49.3480  -11.1690 C.3   111  ILE111      0.0022
    119  CD1      102.1970   47.3430   -9.9900 C.3   111  ILE111      0.0001
    120  N        104.6870   53.6220  -11.2220 N.3   114  GLU114     -0.1245
    121  CA       103.3420   53.7900  -10.6490 C.3   114  GLU114      0.1567
    122  C        103.0350   55.2590  -10.5600 C.2   114  GLU114      0.2260
    123  O        103.8090   56.0130   -9.9800 O.2   114  GLU114     -0.2867
    124  CB       103.2590   53.2630   -9.2270 C.3   114  GLU114      0.0388
    125  CG       103.5410   51.8040   -9.0450 C.3   114  GLU114      0.1160
    126  CD       103.3760   51.4060   -7.6020 C.2   114  GLU114      0.3649
    127  OE1      103.9820   52.0880   -6.7520 O.co2 114  GLU114     -0.2457
    128  OE2      102.6450   50.4440   -7.3090 O.co2 114  GLU114     -0.2457
    129  N        100.9150   54.8220   -6.2320 N.3   137  GLY137     -0.1225
    130  CA       100.9710   53.7110   -5.2850 C.3   137  GLY137      0.1811
    131  C        100.8310   54.0940   -3.8330 C.2   137  GLY137      0.2280
    132  O        100.8460   53.2450   -2.9450 O.2   137  GLY137     -0.2866
    133  N         94.9040   54.1820   -9.0490 N.3   206  ASN206     -0.1226
    134  CA        96.1650   54.2470   -8.3440 C.3   206  ASN206      0.1770
    135  C         96.6040   52.8530   -7.9590 C.2   206  ASN206      0.2439
    136  O         96.0310   52.2680   -7.0980 O.2   206  ASN206     -0.2733
    137  CB        95.9980   55.1120   -7.0880 C.3   206  ASN206      0.1168
    138  CG        97.2760   55.2560   -6.3230 C.2   206  ASN206      0.2627
    139  OD1       98.3310   54.8700   -6.8000 O.2   206  ASN206     -0.2716
    140  ND2       97.1950   55.8220   -5.1210 N.am  206  ASN206     -0.0877
    141  N         97.6440   52.3180   -8.5980 N.am  207  PRO207     -0.2729
    142  CA        98.4230   52.9640   -9.6550 C.3   207  PRO207      0.1401
    143  C         97.9150   52.9410  -11.1210 C.2   207  PRO207      0.2269
    144  O         97.2880   51.9730  -11.5760 O.2   207  PRO207     -0.2865
    145  CB        99.7980   52.2640   -9.5440 C.3   207  PRO207      0.0296
    146  CG        99.4380   50.8710   -9.2400 C.3   207  PRO207      0.0237
    147  CD        98.2760   51.0410   -8.1700 C.3   207  PRO207      0.0939
    148  N         95.9100   49.6060  -12.7800 N.3   219  PHE219     -0.1227
    149  CA        95.9920   48.4350  -11.9050 C.3   219  PHE219      0.1736
    150  C         94.9120   48.3280  -10.8710 C.2   219  PHE219      0.2595
    151  O         94.4880   47.2490  -10.5000 O.2   219  PHE219     -0.2718
    152  CB        97.3430   48.3810  -11.2060 C.3   219  PHE219      0.0547
    153  CG        98.4890   48.0670  -12.1420 C.ar  219  PHE219     -0.0202
    154  CD1       98.9630   49.0270  -13.0270 C.ar  219  PHE219     -0.0042
    155  CD2       99.0580   46.7960  -12.1560 C.ar  219  PHE219     -0.0042
    156  CE1       99.9990   48.7340  -13.9350 C.ar  219  PHE219     -0.0003
    157  CE2      100.1070   46.4800  -13.0690 C.ar  219  PHE219     -0.0003
    158  CZ       100.5670   47.4750  -13.9620 C.ar  219  PHE219     -0.0000
    159  N         94.5020   49.4680  -10.3590 N.am  220  ASP220     -0.1974
    160  CA        93.4530   49.4560   -9.3680 C.3   220  ASP220      0.1709
    161  C         92.6100   50.6630   -9.7290 C.2   220  ASP220      0.2293
    162  O         93.1630   51.6450  -10.2210 O.2   220  ASP220     -0.2864
    163  CB        94.0620   49.6110   -7.9700 C.3   220  ASP220      0.1436
    164  CG        93.0220   49.4660   -6.8680 C.2   220  ASP220      0.3671
    165  OD1       91.9850   48.8260   -7.1430 O.co2 220  ASP220     -0.2456
    166  OD2       93.2560   49.9760   -5.7440 O.co2 220  ASP220     -0.2456
    167  N         88.8510   52.9920   -8.4850 N.3   222  LYS222     -0.1245
    168  CA        87.7590   53.2700   -7.5800 C.3   222  LYS222      0.1561
    169  C         86.8840   54.2090   -8.3450 C.2   222  LYS222      0.2260
    170  O         87.3470   55.2270   -8.8610 O.2   222  LYS222     -0.2867
    171  CB        88.2290   53.9740   -6.3190 C.3   222  LYS222      0.0271
    172  CG        88.9300   53.0950   -5.3460 C.3   222  LYS222      0.0035
    173  CD        88.0400   51.8860   -4.9970 C.3   222  LYS222      0.0206
    174  CE        88.6470   51.0910   -3.8140 C.3   222  LYS222      0.1093
    175  NZ        90.0890   50.7650   -4.1050 N.3   222  LYS222     -0.1314
@<TRIPOS>BOND
     1   103   101    1
     2   102   101    1
     3     3     2    1
     4     3     4    2
     5     1     2    1
     6     2     5    1
     7   101   100    1
     8   100    97    1
     9     5     6    1
    10   107   106    2
    11   111   109   ar
    12     6     7    1
    13    97    98    1
    14    97    96    1
    15    94    93    2
    16   104    98   am
    17   104   105    1
    18   108   109    1
    19   108   105    1
    20   158   156   ar
    21   158   157   ar
    22   156   154   ar
    23   109   110   ar
    24   106   105    1
    25   106   112   am
    26    98    99    2
    27    93    96   am
    28    93    92    1
    29   157   155   ar
    30    10    11    1
    31   154   153   ar
    32     7     9   am
    33     7     8    2
    34   148   149    1
    35   114   113    1
    36   114   115    2
    37    91    92    1
    38   112   113    1
    39   113   116    1
    40    13    12    2
    41   155   153   ar
    42   153   152    1
    43    92    95    1
    44   149   152    1
    45   149   150    1
    46    11    12    1
    47    11    14    1
    48   144   143    2
    49   116   117    1
    50   116   118    1
    51   120   121    1
    52   117   119    1
    53    14    15    1
    54   143   142    1
    55   150   151    2
    56   150   159   am
    57   121   122    1
    58   121   124    1
    59   122   123    2
    60   159   160    1
    61   162   161    2
    62   161   160    1
    63    25    23    1
    64   142   145    1
    65   142   141    1
    66    15    16    1
    67    17    16   ar
    68   145   146    1
    69   160   163    1
    70   146   147    1
    71   124   125    1
    72    19    20    1
    73   133   134    1
    74   125   126    1
    75    16    18   ar
    76   170   169    2
    77   141   147    1
    78   141   135   am
    79   167   168    1
    80    22    21    2
    81   169   168    1
    82   134   135    1
    83   134   137    1
    84    23    20    1
    85    23    24    1
    86    20    21    1
    87   163   164    1
    88   135   136    2
    89   126   128   ar
    90   126   127   ar
    91   168   171    1
    92    34    33    1
    93    81    79    1
    94   165   164   ar
    95   137   138    1
    96    32    33    1
    97    32    31    1
    98   164   166   ar
    99   139   138    2
   100   138   140   am
   101   171   172    1
   102   129   130    1
   103    80    79    1
   104    79    78    1
   105    78    75    1
   106    31    30    1
   107    75    76    1
   108    75    74    1
   109   172   173    1
   110   130   131    1
   111    30    27    1
   112    76    77    2
   113    26    27    1
   114   173   174    1
   115    29    28    2
   116    53    51    1
   117    27    28    1
   118    52    51    1
   119   175   174    1
   120    72    71    1
   121   131   132    2
   122    51    50    2
   123    73    71    1
   124    71    68    1
   125    50    49    1
   126    68    69    1
   127    68    67    1
   128    69    70    2
   129    49    48    1
   130    48    47    1
   131    47    44    1
   132    36    35    1
   133    36    37    1
   134    54    55    1
   135    54    45   am
   136    55    56    1
   137    39    37   am
   138    39    40    1
   139    43    44    1
   140    43    41   am
   141    44    45    1
   142    37    38    2
   143    45    46    2
   144    89    88    2
   145    40    41    1
   146    90    88   am
   147    56    57    2
   148    56    58   am
   149    41    42    2
   150    88    87    1
   151    66    65    1
   152    65    64    1
   153    58    59    1
   154    63    64    1
   155    63    62    1
   156    87    86    1
   157    59    62    1
   158    59    60    1
   159    86    83    1
   160    60    61    2
   161    85    84    2
   162    83    84    1
   163    83    82    1
