@<TRIPOS>MOLECULE
tmp/2fp7B00.pdb
 162 161 0 0 0
SMALL
GASTEIGER

@<TRIPOS>ATOM
      1  N         35.1920   39.2750   -0.4270 N.3    13  ALA13      -0.1245
      2  CA        33.8470   39.1700    0.1430 C.3    13  ALA13       0.1562
      3  C         33.2710   40.5320    0.4740 C.2    13  ALA13       0.2260
      4  O         32.0510   40.7110    0.5350 O.2    13  ALA13      -0.2867
      5  CB        33.8760   38.3150    1.3820 C.3    13  ALA13       0.0290
      6  N         27.6190   44.0270    8.8070 N.3    27  TRP27      -0.1227
      7  CA        27.4580   42.7100    9.4070 C.3    27  TRP27       0.1737
      8  C         27.4800   41.6210    8.3330 C.2    27  TRP27       0.2595
      9  O         28.1270   40.5680    8.4980 O.2    27  TRP27      -0.2718
     10  CB        26.1590   42.6410   10.2230 C.3    27  TRP27       0.0564
     11  CG        25.8110   41.2250   10.6390 C.ar   27  TRP27       0.0003
     12  CD1       24.9480   40.3780   10.0020 C.ar   27  TRP27       0.0946
     13  CD2       26.3370   40.4930   11.7560 C.ar   27  TRP27       0.0152
     14  NE1       24.8970   39.1710   10.6580 N.ar   27  TRP27      -0.2442
     15  CE2       25.7460   39.2110   11.7320 C.ar   27  TRP27       0.0810
     16  CE3       27.2640   40.7900   12.7650 C.ar   27  TRP27       0.0012
     17  CZ2       26.0280   38.2280   12.7010 C.ar   27  TRP27       0.0191
     18  CZ3       27.5550   39.8120   13.7280 C.ar   27  TRP27       0.0001
     19  CH2       26.9400   38.5420   13.6850 C.ar   27  TRP27       0.0015
     20  N         26.7550   41.8590    7.2420 N.am   28  HIS28      -0.1961
     21  CA        26.5170   40.8080    6.2490 C.3    28  HIS28       0.1787
     22  C         27.7340   40.3500    5.4300 C.2    28  HIS28       0.2620
     23  O         27.6610   39.2990    4.7810 O.2    28  HIS28      -0.2715
     24  CB        25.3350   41.1590    5.3350 C.3    28  HIS28       0.0785
     25  CG        25.6910   42.0890    4.2180 C.ar   28  HIS28       0.0821
     26  ND1       25.4300   43.4390    4.2680 N.ar   28  HIS28      -0.2267
     27  CD2       26.2600   41.8600    3.0100 C.ar   28  HIS28       0.1154
     28  CE1       25.8350   44.0070    3.1460 C.ar   28  HIS28       0.1986
     29  NE2       26.3460   43.0710    2.3660 N.ar   28  HIS28      -0.2212
     30  N         28.8360   41.1120    5.4700 N.am   29  THR29      -0.1951
     31  CA        30.0410   40.7310    4.7320 C.3    29  THR29       0.1897
     32  C         30.7360   39.5190    5.3570 C.2    29  THR29       0.2313
     33  O         31.3040   38.7140    4.6370 O.2    29  THR29      -0.2863
     34  CB        31.0790   41.8440    4.5980 C.3    29  THR29       0.1794
     35  OG1       31.5800   42.1920    5.8880 O.3    29  THR29      -0.2208
     36  CG2       30.4750   43.0830    3.9230 C.3    29  THR29       0.0378
     37  N         22.6150   43.0510   13.7160 N.3    49  VAL49      -0.1231
     38  CA        21.9790   42.5340   12.5080 C.3    49  VAL49       0.1692
     39  C         20.9690   43.5550   11.9370 C.2    49  VAL49       0.2591
     40  O         20.9820   43.8030   10.7330 O.2    49  VAL49      -0.2718
     41  CB        21.3610   41.1240   12.7460 C.3    49  VAL49       0.0266
     42  CG1       20.4460   40.6900   11.5900 C.3    49  VAL49       0.0020
     43  CG2       22.4750   40.1230   12.9420 C.3    49  VAL49       0.0020
     44  N         20.1370   44.1590   12.7950 N.am   50  LYS50      -0.1980
     45  CA        19.1600   45.1600   12.3420 C.3    50  LYS50       0.1596
     46  C         19.8430   46.3190   11.6240 C.2    50  LYS50       0.2287
     47  O         19.3880   46.7560   10.5620 O.2    50  LYS50      -0.2864
     48  CB        18.2630   45.6720   13.4920 C.3    50  LYS50       0.0298
     49  CG        17.4050   46.8770   13.0980 C.3    50  LYS50       0.0038
     50  CD        16.0260   46.8920   13.7200 C.3    50  LYS50       0.0206
     51  CE        15.1180   47.7860   12.8760 C.3    50  LYS50       0.1093
     52  NZ        13.8590   48.1630   13.5540 N.3    50  LYS50      -0.1314
     53  N         22.8740   46.2340   10.4090 N.3    52  ASP52      -0.1239
     54  CA        23.8660   45.6640    9.4730 C.3    52  ASP52       0.1674
     55  C         25.2610   46.2450    9.6790 C.2    52  ASP52       0.2266
     56  O         25.9700   46.5140    8.7080 O.2    52  ASP52      -0.2867
     57  CB        23.4270   45.8250    8.0050 C.3    52  ASP52       0.1410
     58  CG        24.1390   44.8640    7.0640 C.2    52  ASP52       0.3668
     59  OD1       24.6120   43.7850    7.5170 O.co2  52  ASP52      -0.2456
     60  OD2       24.2150   45.1750    5.8550 O.co2  52  ASP52      -0.2456
     61  N         26.1060   52.0330   -7.8540 N.3   106  ASP106     -0.1225
     62  CA        25.8370   50.6090   -8.0760 C.3   106  ASP106      0.1805
     63  C         27.1380   49.9290   -8.4600 C.2   106  ASP106      0.2598
     64  O         27.6070   50.0460   -9.5920 O.2   106  ASP106     -0.2718
     65  CB        24.7650   50.4420   -9.1730 C.3   106  ASP106      0.1424
     66  CG        24.2920   48.9840   -9.3530 C.2   106  ASP106      0.3668
     67  OD1       24.9370   48.0290   -8.8550 O.co2 106  ASP106     -0.2456
     68  OD2       23.2470   48.7970  -10.0240 O.co2 106  ASP106     -0.2456
     69  N         27.7110   49.2270   -7.4950 N.am  107  TYR107     -0.1963
     70  CA        28.9850   48.5030   -7.6620 C.3   107  TYR107      0.1756
     71  C         28.8010   47.0080   -7.3260 C.2   107  TYR107      0.2461
     72  O         27.7720   46.6330   -6.7720 O.2   107  TYR107     -0.2730
     73  CB        30.0760   49.1780   -6.7960 C.3   107  TYR107      0.0574
     74  CG        30.4230   50.5360   -7.3230 C.ar  107  TYR107     -0.0198
     75  CD1       29.9170   51.6940   -6.7310 C.ar  107  TYR107     -0.0009
     76  CD2       31.2280   50.6660   -8.4600 C.ar  107  TYR107     -0.0009
     77  CE1       30.2190   52.9590   -7.2540 C.ar  107  TYR107      0.0417
     78  CE2       31.5420   51.9150   -8.9760 C.ar  107  TYR107      0.0417
     79  CZ        31.0260   53.0490   -8.3840 C.ar  107  TYR107      0.1957
     80  OH        31.3430   54.2760   -8.9300 O.3   107  TYR107     -0.2866
     81  N         29.7800   46.1470   -7.6880 N.am  108  PRO108     -0.2716
     82  CA        29.7240   44.6820   -7.4380 C.3   108  PRO108      0.1536
     83  C         29.6090   44.2790   -5.9400 C.2   108  PRO108      0.2599
     84  O         29.9370   45.0840   -5.0910 O.2   108  PRO108     -0.2715
     85  CB        31.0540   44.1870   -8.0460 C.3   108  PRO108      0.0310
     86  CG        31.3940   45.2090   -9.0930 C.3   108  PRO108      0.0237
     87  CD        31.0000   46.5260   -8.4250 C.3   108  PRO108      0.0939
     88  N         29.1860   43.0330   -5.6290 N.am  109  THR109     -0.1951
     89  CA        29.0210   42.5600   -4.2140 C.3   109  THR109      0.1897
     90  C         30.2640   42.7170   -3.3100 C.2   109  THR109      0.2313
     91  O         30.1910   43.0770   -2.1040 O.2   109  THR109     -0.2863
     92  CB        28.5590   41.0720   -4.1500 C.3   109  THR109      0.1794
     93  OG1       27.3170   40.9300   -4.8380 O.3   109  THR109     -0.2208
     94  CG2       28.3630   40.6160   -2.7020 C.3   109  THR109      0.0378
     95  N         32.0480   44.9930   -2.9320 N.3   111  THR111     -0.1203
     96  CA        32.2700   46.3730   -2.5160 C.3   111  THR111      0.1994
     97  C         31.5250   46.7560   -1.2220 C.2   111  THR111      0.2618
     98  O         31.7420   47.8570   -0.7050 O.2   111  THR111     -0.2717
     99  CB        31.9320   47.4060   -3.6560 C.3   111  THR111      0.1784
    100  OG1       30.5090   47.3970   -3.9110 O.3   111  THR111     -0.2211
    101  CG2       32.6710   47.0480   -4.9490 C.3   111  THR111      0.0376
    102  N         30.6760   45.8730   -0.6790 N.am  112  SER112     -0.1951
    103  CA        29.9700   46.2420    0.5750 C.3   112  SER112      0.1924
    104  C         30.9920   46.4380    1.6790 C.2   112  SER112      0.2314
    105  O         31.9330   45.6230    1.8270 O.2   112  SER112     -0.2863
    106  CB        28.9570   45.1710    0.9960 C.3   112  SER112      0.2116
    107  OG        27.8080   45.1900    0.1450 O.3   112  SER112     -0.2180
    108  N         29.1360   51.6660    2.5820 N.3   127  TYR127     -0.1227
    109  CA        28.2760   51.3440    1.4560 C.3   127  TYR127      0.1736
    110  C         27.7940   49.9050    1.5040 C.2   127  TYR127      0.2596
    111  O         28.5480   49.0110    1.8780 O.2   127  TYR127     -0.2718
    112  CB        29.0840   51.5310    0.1780 C.3   127  TYR127      0.0548
    113  CG        28.4110   51.1090   -1.0990 C.ar  127  TYR127     -0.0200
    114  CD1       27.4440   51.9240   -1.7000 C.ar  127  TYR127     -0.0009
    115  CD2       28.7620   49.9050   -1.7110 C.ar  127  TYR127     -0.0009
    116  CE1       26.8450   51.5540   -2.9050 C.ar  127  TYR127      0.0417
    117  CE2       28.1800   49.5180   -2.9160 C.ar  127  TYR127      0.0417
    118  CZ        27.2260   50.3590   -3.5090 C.ar  127  TYR127      0.1957
    119  OH        26.6270   49.9860   -4.6920 O.3   127  TYR127     -0.2866
    120  N         26.5410   49.6940    1.1050 N.am  128  GLY128     -0.1942
    121  CA        26.1050   48.3560    0.6960 C.3   128  GLY128      0.2014
    122  C         24.9090   47.7340    1.3820 C.2   128  GLY128      0.2639
    123  O         24.7190   46.5200    1.2890 O.2   128  GLY128     -0.2714
    124  N         24.0930   48.5370    2.0500 N.am  129  ASN129     -0.1958
    125  CA        22.7780   48.0410    2.5080 C.3   129  ASN129      0.1819
    126  C         21.7470   49.0380    2.0170 C.2   129  ASN129      0.2622
    127  O         21.8030   50.2160    2.3790 O.2   129  ASN129     -0.2715
    128  CB        22.7220   47.9000    4.0310 C.3   129  ASN129      0.1195
    129  CG        21.4950   47.1190    4.4920 C.2   129  ASN129      0.2630
    130  OD1       21.0000   46.2590    3.7650 O.2   129  ASN129     -0.2716
    131  ND2       21.0170   47.4010    5.6960 N.am  129  ASN129     -0.0877
    132  N         20.8630   48.6000    1.1310 N.am  130  GLY130     -0.1940
    133  CA        19.9170   49.5520    0.5560 C.3   130  GLY130      0.2014
    134  C         18.7050   48.8820   -0.0430 C.2   130  GLY130      0.2639
    135  O         18.2070   47.8880    0.4920 O.2   130  GLY130     -0.2714
    136  N         18.2500   49.4420   -1.1570 N.am  131  VAL131     -0.1963
    137  CA        17.0240   48.9940   -1.8230 C.3   131  VAL131      0.1727
    138  C         17.2410   48.9740   -3.3200 C.2   131  VAL131      0.2616
    139  O         18.1000   49.6850   -3.8620 O.2   131  VAL131     -0.2715
    140  CB        15.7610   49.8900   -1.5230 C.3   131  VAL131      0.0290
    141  CG1       15.3980   49.8780   -0.0490 C.3   131  VAL131      0.0023
    142  CG2       15.9350   51.3280   -2.0210 C.3   131  VAL131      0.0023
    143  N         16.4520   48.1410   -3.9840 N.am  132  ILE132     -0.1977
    144  CA        16.3400   48.1960   -5.4220 C.3   132  ILE132      0.1596
    145  C         15.0080   48.8680   -5.7590 C.2   132  ILE132      0.2287
    146  O         13.9330   48.4970   -5.2430 O.2   132  ILE132     -0.2864
    147  CB        16.5230   46.7800   -6.0600 C.3   132  ILE132      0.0276
    148  CG1       16.6130   46.8660   -7.5880 C.3   132  ILE132      0.0022
    149  CG2       15.4460   45.8000   -5.5590 C.3   132  ILE132      0.0022
    150  CD1       16.8580   45.5100   -8.2730 C.3   132  ILE132      0.0001
    151  N         19.7200   50.7970   -8.0550 N.3   138  TYR138     -0.1241
    152  CA        20.1590   50.4890   -6.7000 C.3   138  TYR138      0.1605
    153  C         20.4470   51.7870   -5.9410 C.2   138  TYR138      0.2264
    154  O         21.0380   52.7160   -6.5020 O.2   138  TYR138     -0.2867
    155  CB        21.4160   49.6070   -6.6980 C.3   138  TYR138      0.0534
    156  CG        21.8570   49.2250   -5.2970 C.ar  138  TYR138     -0.0201
    157  CD1       21.0150   48.4590   -4.4720 C.ar  138  TYR138     -0.0009
    158  CD2       23.0980   49.6320   -4.7940 C.ar  138  TYR138     -0.0009
    159  CE1       21.3950   48.1070   -3.1750 C.ar  138  TYR138      0.0417
    160  CE2       23.5130   49.2700   -3.4890 C.ar  138  TYR138      0.0417
    161  CZ        22.6530   48.5130   -2.6900 C.ar  138  TYR138      0.1957
    162  OH        23.0060   48.1500   -1.4190 O.3   138  TYR138     -0.2866
@<TRIPOS>BOND
     1    68    66   ar
     2    64    63    2
     3    66    65    1
     4    66    67   ar
     5    65    62    1
     6    86    87    1
     7    86    85    1
     8    78    76   ar
     9    78    79   ar
    10    80    79    1
    11    63    62    1
    12    63    69   am
    13    76    74   ar
    14    87    81    1
    15    79    77   ar
    16   150   148    1
    17    62    61    1
    18   151   152    1
    19    85    82    1
    20    81    82    1
    21    81    71   am
    22    70    69    1
    23    70    71    1
    24    70    73    1
    25   148   147    1
    26    82    83    1
    27    71    72    2
    28    74    73    1
    29    74    75   ar
    30    77    75   ar
    31   152   155    1
    32   152   153    1
    33   155   156    1
    34   154   153    2
    35   147   149    1
    36   147   144    1
    37    83    88   am
    38    83    84    2
    39   145   144    1
    40   145   146    2
    41    88    89    1
    42   144   143    1
    43   156   158   ar
    44   156   157   ar
    45   101    99    1
    46    93    92    1
    47   158   160   ar
    48   119   118    1
    49   157   159   ar
    50    89    92    1
    51    89    90    1
    52    92    94    1
    53   143   138   am
    54   100    99    1
    55   139   138    2
    56    99    96    1
    57   118   117   ar
    58   118   116   ar
    59   160   161   ar
    60   138   137    1
    61    90    91    2
    62   159   161   ar
    63    95    96    1
    64   117   115   ar
    65   116   114   ar
    66   161   162    1
    67    96    97    1
    68   142   140    1
    69   137   140    1
    70   137   136    1
    71   115   113   ar
    72   114   113   ar
    73   140   141    1
    74    97    98    2
    75    97   102   am
    76   136   134   am
    77   113   112    1
    78   102   103    1
    79     1     2    1
    80   134   135    2
    81   134   133    1
    82     2     3    1
    83     2     5    1
    84   107   106    1
    85   112   109    1
    86     3     4    2
    87   133   132    1
    88   103   106    1
    89   103   104    1
    90   121   120    1
    91   121   122    1
    92   120   110   am
    93   132   126   am
    94   123   122    2
    95   122   124   am
    96   109   110    1
    97   109   108    1
    98   110   111    2
    99   104   105    2
   100   126   127    2
   101   126   125    1
   102   124   125    1
   103    29    27   ar
   104    29    28   ar
   105   125   128    1
   106    27    25   ar
   107    28    26   ar
   108   130   129    2
   109    36    34    1
   110   128   129    1
   111    25    26   ar
   112    25    24    1
   113   129   131   am
   114    34    31    1
   115    34    35    1
   116    33    32    2
   117    31    32    1
   118    31    30    1
   119    23    22    2
   120    24    21    1
   121    22    30   am
   122    22    21    1
   123    60    58   ar
   124    21    20    1
   125    58    59   ar
   126    58    57    1
   127    20     8   am
   128    57    54    1
   129     8     9    2
   130     8     7    1
   131    56    55    2
   132     6     7    1
   133     7    10    1
   134    54    55    1
   135    54    53    1
   136    12    11   ar
   137    12    14   ar
   138    10    11    1
   139    47    46    2
   140    11    13   ar
   141    14    15   ar
   142    40    39    2
   143    42    41    1
   144    46    45    1
   145    15    13   ar
   146    15    17   ar
   147    13    16   ar
   148    39    38    1
   149    39    44   am
   150    45    44    1
   151    45    48    1
   152    38    41    1
   153    38    37    1
   154    17    19   ar
   155    41    43    1
   156    16    18   ar
   157    51    52    1
   158    51    50    1
   159    49    48    1
   160    49    50    1
   161    19    18   ar
