@<TRIPOS>MOLECULE
tmp/2fpgB00.pdb
 166 155 0 0 0
SMALL
GASTEIGER

@<TRIPOS>ATOM
      1  N         94.4600   44.8320  -16.4250 N.3    20  GLN20      -0.1245
      2  CA        95.0830   43.5100  -16.4270 C.3    20  GLN20       0.1566
      3  C         94.0470   42.4310  -16.6210 C.2    20  GLN20       0.2260
      4  O         92.9370   42.5560  -16.1230 O.2    20  GLN20      -0.2867
      5  CB        95.7680   43.2380  -15.0850 C.3    20  GLN20       0.0367
      6  CG        96.9310   44.1420  -14.7420 C.3    20  GLN20       0.0905
      7  CD        97.3140   44.0620  -13.2720 C.2    20  GLN20       0.2608
      8  OE1       96.5800   44.5320  -12.4030 O.2    20  GLN20      -0.2717
      9  NE2       98.4660   43.4630  -12.9890 N.am   20  GLN20      -0.0878
     10  N        103.1000   35.3580  -13.1950 N.3    42  GLU42      -0.1245
     11  CA       102.6660   35.5690  -11.8170 C.3    42  GLU42       0.1567
     12  C        101.1870   35.9410  -11.7600 C.2    42  GLU42       0.2260
     13  O        100.6730   36.6070  -12.6560 O.2    42  GLU42      -0.2867
     14  CB       103.5090   36.6620  -11.1660 C.3    42  GLU42       0.0388
     15  CG       103.4640   36.6430   -9.6560 C.3    42  GLU42       0.1160
     16  CD       104.4950   37.5640   -9.0400 C.2    42  GLU42       0.3649
     17  OE1      104.3420   38.8010   -9.1530 O.co2  42  GLU42      -0.2457
     18  OE2      105.4670   37.0450   -8.4470 O.co2  42  GLU42      -0.2457
     19  N         97.6950   37.3780   -9.3500 N.3    44  VAL44      -0.1245
     20  CA        97.3700   38.3570   -8.3140 C.3    44  VAL44       0.1561
     21  C         96.0150   38.0990   -7.6790 C.2    44  VAL44       0.2260
     22  O         94.9890   38.1160   -8.3550 O.2    44  VAL44      -0.2867
     23  CB        97.3420   39.7820   -8.8560 C.3    44  VAL44       0.0252
     24  CG1       97.0430   40.7490   -7.7340 C.3    44  VAL44       0.0019
     25  CG2       98.6580   40.1150   -9.4720 C.3    44  VAL44       0.0019
     26  N         93.1690   39.3560   -5.1490 N.3    46  LYS46      -0.1245
     27  CA        92.6830   40.5830   -4.5140 C.3    46  LYS46       0.1561
     28  C         91.2450   40.4710   -3.9920 C.2    46  LYS46       0.2260
     29  O         90.2940   40.3230   -4.7730 O.2    46  LYS46      -0.2867
     30  CB        92.7550   41.7700   -5.4890 C.3    46  LYS46       0.0271
     31  CG        94.0650   41.9140   -6.2370 C.3    46  LYS46       0.0035
     32  CD        94.0740   43.1500   -7.1290 C.3    46  LYS46       0.0206
     33  CE        94.1320   44.4190   -6.2960 C.3    46  LYS46       0.1093
     34  NZ        94.3500   45.6270   -7.1360 N.3    46  LYS46      -0.1314
     35  N         89.7310   50.6570    0.6260 N.3    52  GLY52      -0.1210
     36  CA        91.0490   50.7540    0.0230 C.3    52  GLY52       0.1956
     37  C         92.1060   50.3390    1.0290 C.2    52  GLY52       0.2612
     38  O         91.7910   50.1340    2.2030 O.2    52  GLY52      -0.2717
     39  N         93.3540   50.2150    0.5830 N.am   53  GLY53      -0.1942
     40  CA        94.4230   49.8110    1.4830 C.3    53  GLY53       0.2014
     41  C         94.3260   48.3360    1.8350 C.2    53  GLY53       0.2639
     42  O         94.9540   47.8660    2.7840 O.2    53  GLY53      -0.2714
     43  N         93.5270   47.6120    1.0570 N.am   54  ARG54      -0.1963
     44  CA        93.3080   46.1850    1.2450 C.3    54  ARG54       0.1729
     45  C         94.6350   45.4370    1.3630 C.2    54  ARG54       0.2617
     46  O         94.8070   44.5660    2.2270 O.2    54  ARG54      -0.2715
     47  CB        92.5030   45.6470    0.0640 C.3    54  ARG54       0.0348
     48  CG        91.1720   46.3540   -0.1490 C.3    54  ARG54       0.0492
     49  CD        90.5560   45.9930   -1.5000 C.3    54  ARG54       0.2205
     50  NE        91.3820   46.4530   -2.6160 N.pl3  54  ARG54      -0.0865
     51  CZ        91.2950   45.9800   -3.8550 C.cat  54  ARG54       0.5346
     52  NH1       90.4150   45.0320   -4.1320 N.pl3  54  ARG54       0.1354
     53  NH2       92.0930   46.4410   -4.8120 N.pl3  54  ARG54       0.1354
     54  N         95.5740   45.8010    0.4920 N.am   55  GLY55      -0.1940
     55  CA        96.8840   45.1640    0.4750 C.3    55  GLY55       0.2014
     56  C         97.7180   45.3630    1.7280 C.2    55  GLY55       0.2638
     57  O         98.8550   44.8810    1.8050 O.2    55  GLY55      -0.2714
     58  N         97.1540   46.0780    2.7020 N.am   56  LYS56      -0.1977
     59  CA        97.8260   46.3530    3.9680 C.3    56  LYS56       0.1596
     60  C         96.8940   46.0430    5.1270 C.2    56  LYS56       0.2287
     61  O         97.2170   46.3050    6.2830 O.2    56  LYS56      -0.2864
     62  CB        98.2660   47.8250    4.0470 C.3    56  LYS56       0.0298
     63  CG        99.4120   48.1900    3.1060 C.3    56  LYS56       0.0038
     64  CD        99.9440   49.5920    3.3720 C.3    56  LYS56       0.0206
     65  CE       101.1770   49.8820    2.5170 C.3    56  LYS56       0.1093
     66  NZ       101.8320   51.1810    2.8660 N.3    56  LYS56      -0.1314
     67  N         95.9930   41.9470   -1.0550 N.3    67  VAL67      -0.1245
     68  CA        96.5270   41.6980   -2.3800 C.3    67  VAL67       0.1561
     69  C         97.7260   40.7710   -2.2270 C.2    67  VAL67       0.2260
     70  O         98.6590   41.0630   -1.4870 O.2    67  VAL67      -0.2867
     71  CB        96.9450   43.0140   -3.0660 C.3    67  VAL67       0.0252
     72  CG1       97.3100   42.7590   -4.5260 C.3    67  VAL67       0.0019
     73  CG2       95.8100   44.0010   -2.9830 C.3    67  VAL67       0.0019
     74  N        100.6300   38.3110   -4.3360 N.3    69  LEU69      -0.1245
     75  CA       101.2770   37.9130   -5.5770 C.3    69  LEU69       0.1561
     76  C        101.8050   36.4960   -5.3850 C.2    69  LEU69       0.2260
     77  O        102.3690   36.1750   -4.3430 O.2    69  LEU69      -0.2867
     78  CB       102.4350   38.8540   -5.8950 C.3    69  LEU69       0.0270
     79  CG       102.0840   40.2880   -6.2910 C.3    69  LEU69       0.0019
     80  CD1      103.3480   41.1180   -6.3750 C.3    69  LEU69       0.0001
     81  CD2      101.3630   40.2940   -7.6250 C.3    69  LEU69       0.0001
     82  N         99.3670   39.1920  -12.9490 N.3   108  ALA108     -0.1231
     83  CA       100.2710   40.2460  -12.4840 C.3   108  ALA108      0.1694
     84  C        101.1500   40.7200  -13.6290 C.2   108  ALA108      0.2592
     85  O        101.3130   40.0350  -14.6330 O.2   108  ALA108     -0.2718
     86  CB       101.1520   39.7380  -11.3550 C.3   108  ALA108      0.0304
     87  N        101.7040   41.9070  -13.4860 N.am  109  LEU109     -0.1966
     88  CA       102.5950   42.4360  -14.4960 C.3   109  LEU109      0.1728
     89  C        103.6970   43.0700  -13.6960 C.2   109  LEU109      0.2616
     90  O        103.5610   43.2550  -12.4820 O.2   109  LEU109     -0.2715
     91  CB       101.8990   43.4790  -15.3580 C.3   109  LEU109      0.0311
     92  CG       100.7330   42.9690  -16.2070 C.3   109  LEU109      0.0022
     93  CD1      100.2280   44.1170  -17.0460 C.3   109  LEU109      0.0001
     94  CD2      101.1530   41.8180  -17.1040 C.3   109  LEU109      0.0001
     95  N        104.8090   43.3780  -14.3390 N.am  110  ASP110     -0.1957
     96  CA       105.8680   43.9930  -13.5810 C.3   110  ASP110      0.1840
     97  C        105.6840   45.4780  -13.6910 C.2   110  ASP110      0.2621
     98  O        105.2240   45.9910  -14.7090 O.2   110  ASP110     -0.2715
     99  CB       107.2330   43.5470  -14.0890 C.3   110  ASP110      0.1450
    100  CG       107.5070   42.0830  -13.7850 C.2   110  ASP110      0.3671
    101  OD1      107.3260   41.6690  -12.6170 O.co2 110  ASP110     -0.2456
    102  OD2      107.9060   41.3450  -14.7130 O.co2 110  ASP110     -0.2456
    103  N        106.0210   46.1660  -12.6130 N.am  111  ILE111     -0.1977
    104  CA       105.8680   47.6030  -12.5580 C.3   111  ILE111      0.1596
    105  C        107.2140   48.2940  -12.4750 C.2   111  ILE111      0.2287
    106  O        107.9220   48.1670  -11.4840 O.2   111  ILE111     -0.2864
    107  CB       105.0220   47.9970  -11.3370 C.3   111  ILE111      0.0276
    108  CG1      103.6760   47.2690  -11.3900 C.3   111  ILE111      0.0022
    109  CG2      104.8450   49.5190  -11.2870 C.3   111  ILE111      0.0022
    110  CD1      102.8440   47.4640  -10.1500 C.3   111  ILE111      0.0001
    111  N        105.7320   53.7550  -10.9460 N.3   114  GLU114     -0.1245
    112  CA       104.3730   53.8460  -10.4040 C.3   114  GLU114      0.1567
    113  C        103.9650   55.3140  -10.3920 C.2   114  GLU114      0.2260
    114  O        104.7170   56.1540   -9.9110 O.2   114  GLU114     -0.2867
    115  CB       104.2980   53.3000   -8.9680 C.3   114  GLU114      0.0388
    116  CG       104.2230   51.7740   -8.8440 C.3   114  GLU114      0.1160
    117  CD       103.8490   51.2980   -7.4290 C.2   114  GLU114      0.3649
    118  OE1      104.5340   51.7020   -6.4640 O.co2 114  GLU114     -0.2457
    119  OE2      102.8760   50.5180   -7.2720 O.co2 114  GLU114     -0.2457
    120  N        101.8030   54.5550   -6.2400 N.3   137  GLY137     -0.1225
    121  CA       101.7790   53.4970   -5.2450 C.3   137  GLY137      0.1811
    122  C        101.4170   53.9640   -3.8540 C.2   137  GLY137      0.2280
    123  O        100.9690   53.1750   -3.0210 O.2   137  GLY137     -0.2866
    124  N         95.6760   53.8820   -9.2240 N.3   206  ASN206     -0.1226
    125  CA        96.8940   53.8720   -8.4380 C.3   206  ASN206      0.1770
    126  C         97.3930   52.4600   -8.1300 C.2   206  ASN206      0.2439
    127  O         96.7790   51.7120   -7.3720 O.2   206  ASN206     -0.2733
    128  CB        96.6770   54.6590   -7.1490 C.3   206  ASN206      0.1168
    129  CG        97.9690   54.9790   -6.4470 C.2   206  ASN206      0.2627
    130  OD1       99.0490   54.6740   -6.9520 O.2   206  ASN206     -0.2716
    131  ND2       97.8740   55.6040   -5.2780 N.am  206  ASN206     -0.0877
    132  N         98.5370   52.0850   -8.7190 N.am  207  PRO207     -0.2729
    133  CA        99.3150   52.9370   -9.6150 C.3   207  PRO207      0.1401
    134  C         98.8600   52.9310  -11.0660 C.2   207  PRO207      0.2269
    135  O         98.2770   51.9610  -11.5380 O.2   207  PRO207     -0.2865
    136  CB       100.7030   52.3530   -9.4900 C.3   207  PRO207      0.0296
    137  CG       100.4030   50.9080   -9.4360 C.3   207  PRO207      0.0237
    138  CD        99.2830   50.8500   -8.4260 C.3   207  PRO207      0.0939
    139  N         96.7920   49.5490  -13.0330 N.3   219  PHE219     -0.1227
    140  CA        96.8610   48.3530  -12.1940 C.3   219  PHE219      0.1736
    141  C         95.7820   48.2580  -11.1420 C.2   219  PHE219      0.2595
    142  O         95.4660   47.1730  -10.6590 O.2   219  PHE219     -0.2718
    143  CB        98.2370   48.2390  -11.5460 C.3   219  PHE219      0.0547
    144  CG        99.3450   48.0930  -12.5360 C.ar  219  PHE219     -0.0202
    145  CD1       99.7950   49.1880  -13.2570 C.ar  219  PHE219     -0.0042
    146  CD2       99.9160   46.8510  -12.7790 C.ar  219  PHE219     -0.0042
    147  CE1      100.7980   49.0530  -14.2080 C.ar  219  PHE219     -0.0003
    148  CE2      100.9200   46.7000  -13.7290 C.ar  219  PHE219     -0.0003
    149  CZ       101.3620   47.8070  -14.4450 C.ar  219  PHE219     -0.0000
    150  N         95.2310   49.4020  -10.7660 N.am  220  ASP220     -0.1974
    151  CA        94.1310   49.4280   -9.8150 C.3   220  ASP220      0.1709
    152  C         93.2670   50.6490  -10.1100 C.2   220  ASP220      0.2293
    153  O         93.7480   51.6460  -10.6580 O.2   220  ASP220     -0.2864
    154  CB        94.6270   49.4600   -8.3690 C.3   220  ASP220      0.1436
    155  CG        93.4790   49.4210   -7.3680 C.2   220  ASP220      0.3671
    156  OD1       92.6200   48.5230   -7.4910 O.co2 220  ASP220     -0.2456
    157  OD2       93.4250   50.2820   -6.4650 O.co2 220  ASP220     -0.2456
    158  N         89.5400   52.9960   -8.7090 N.3   222  LYS222     -0.1245
    159  CA        88.5340   53.3030   -7.7250 C.3   222  LYS222      0.1561
    160  C         87.6670   54.3670   -8.3660 C.2   222  LYS222      0.2260
    161  O         88.1090   55.4900   -8.5920 O.2   222  LYS222     -0.2867
    162  CB        89.2060   53.7960   -6.4480 C.3   222  LYS222      0.0271
    163  CG        89.8010   52.6560   -5.6360 C.3   222  LYS222      0.0035
    164  CD        90.8510   53.0920   -4.6250 C.3   222  LYS222      0.0206
    165  CE        91.2320   51.9260   -3.6890 C.3   222  LYS222      0.1093
    166  NZ        91.6470   50.6420   -4.3620 N.3   222  LYS222     -0.1314
@<TRIPOS>BOND
     1    94    92    1
     2    93    92    1
     3     3     2    1
     4     3     4    2
     5     2     1    1
     6     2     5    1
     7    92    91    1
     8    91    88    1
     9     5     6    1
    10     6     7    1
    11   102   100   ar
    12    98    97    2
    13    85    84    2
    14    88    89    1
    15    88    87    1
    16   149   147   ar
    17   149   148   ar
    18    95    89   am
    19    95    96    1
    20   147   145   ar
    21    99   100    1
    22    99    96    1
    23   100   101   ar
    24   148   146   ar
    25    89    90    2
    26    97    96    1
    27    97   103   am
    28    84    87   am
    29    84    83    1
    30     7     9   am
    31     7     8    2
    32   145   144   ar
    33    10    11    1
    34   139   140    1
    35    82    83    1
    36   146   144   ar
    37    13    12    2
    38   103   104    1
    39   104   105    1
    40   104   107    1
    41   144   143    1
    42    83    86    1
    43   105   106    2
    44   140   143    1
    45   140   141    1
    46    11    12    1
    47    11    14    1
    48   135   134    2
    49   108   107    1
    50   108   110    1
    51   107   109    1
    52    14    15    1
    53   141   150   am
    54   141   142    2
    55   134   133    1
    56   111   112    1
    57   150   151    1
    58   153   152    2
    59   112   113    1
    60   112   115    1
    61   113   114    2
    62   152   151    1
    63   151   154    1
    64    15    16    1
    65   133   136    1
    66   133   132    1
    67   136   137    1
    68    25    23    1
    69   137   138    1
    70    19    20    1
    71   124   125    1
    72    17    16   ar
    73    16    18   ar
    74   115   116    1
    75    23    20    1
    76    23    24    1
    77   116   117    1
    78   132   138    1
    79   132   126   am
    80   158   159    1
    81   161   160    2
    82   125   126    1
    83   125   128    1
    84   154   155    1
    85   160   159    1
    86    22    21    2
    87    20    21    1
    88   126   127    2
    89   159   162    1
    90    81    79    1
    91   156   155   ar
    92   117   119   ar
    93   117   118   ar
    94   155   157   ar
    95   128   129    1
    96    34    33    1
    97    32    33    1
    98    32    31    1
    99   130   129    2
   100   162   163    1
   101   129   131   am
   102    80    79    1
   103    79    78    1
   104   120   121    1
   105    31    30    1
   106    78    75    1
   107   163   164    1
   108    75    76    1
   109    75    74    1
   110    30    27    1
   111    76    77    2
   112   121   122    1
   113    26    27    1
   114    53    51    1
   115    29    28    2
   116   164   165    1
   117    72    71    1
   118    27    28    1
   119   166   165    1
   120    52    51    1
   121    51    50    2
   122   122   123    2
   123    71    73    1
   124    71    68    1
   125    50    49    1
   126    68    69    1
   127    68    67    1
   128    69    70    2
   129    49    48    1
   130    48    47    1
   131    36    35    1
   132    36    37    1
   133    47    44    1
   134    55    54    1
   135    55    56    1
   136    54    45   am
   137    39    37   am
   138    39    40    1
   139    37    38    2
   140    43    44    1
   141    43    41   am
   142    44    45    1
   143    45    46    2
   144    40    41    1
   145    56    57    2
   146    56    58   am
   147    41    42    2
   148    65    66    1
   149    65    64    1
   150    58    59    1
   151    63    64    1
   152    63    62    1
   153    59    62    1
   154    59    60    1
   155    60    61    2
