@<TRIPOS>MOLECULE
tmp/2fpkA00.pdb
 130 123 0 0 0
SMALL
GASTEIGER

@<TRIPOS>ATOM
      1  N         32.0190   61.8800  -11.4910 N.3   103  PHE103     -0.1227
      2  CA        30.6410   61.5350  -11.7800 C.3   103  PHE103      0.1736
      3  C         30.5890   60.6430  -13.0070 C.2   103  PHE103      0.2596
      4  O         31.3120   60.8630  -13.9820 O.2   103  PHE103     -0.2718
      5  CB        29.7940   62.7920  -12.0250 C.3   103  PHE103      0.0547
      6  CG        28.3130   62.5620  -11.8570 C.ar  103  PHE103     -0.0202
      7  CD1       27.5600   63.3730  -11.0140 C.ar  103  PHE103     -0.0042
      8  CD2       27.6710   61.5170  -12.5240 C.ar  103  PHE103     -0.0042
      9  CE1       26.1900   63.1460  -10.8340 C.ar  103  PHE103     -0.0003
     10  CE2       26.3040   61.2810  -12.3530 C.ar  103  PHE103     -0.0003
     11  CZ        25.5630   62.0980  -11.5050 C.ar  103  PHE103     -0.0000
     12  N         29.7390   59.6230  -12.9380 N.am  104  GLY104     -0.1942
     13  CA        29.5660   58.7150  -14.0530 C.3   104  GLY104      0.2014
     14  C         30.5700   57.5920  -14.1320 C.2   104  GLY104      0.2640
     15  O         30.4660   56.7460  -15.0130 O.2   104  GLY104     -0.2714
     16  N         31.5430   57.5610  -13.2260 N.am  105  SER105     -0.1935
     17  CA        32.5530   56.5030  -13.2770 C.3   105  SER105      0.2055
     18  C         32.0400   55.1100  -12.9180 C.2   105  SER105      0.2644
     19  O         32.6790   54.1090  -13.2590 O.2   105  SER105     -0.2714
     20  CB        33.7560   56.8660  -12.3950 C.3   105  SER105      0.2130
     21  OG        33.3710   57.0660  -11.0500 O.3   105  SER105     -0.2179
     22  N         30.9050   55.0340  -12.2240 N.am  106  GLY106     -0.1939
     23  CA        30.3400   53.7280  -11.8830 C.3   106  GLY106      0.2014
     24  C         30.1830   53.3550  -10.4160 C.2   106  GLY106      0.2639
     25  O         29.9330   52.1870  -10.0920 O.2   106  GLY106     -0.2714
     26  N         30.3060   54.3350   -9.5230 N.am  107  LYS107     -0.1963
     27  CA        30.1960   54.0820   -8.0980 C.3   107  LYS107      0.1728
     28  C         28.8240   53.5260   -7.6980 C.2   107  LYS107      0.2617
     29  O         28.7220   52.5480   -6.9650 O.2   107  LYS107     -0.2715
     30  CB        30.4760   55.3760   -7.3260 C.3   107  LYS107      0.0311
     31  CG        31.8130   56.0140   -7.6460 C.3   107  LYS107      0.0038
     32  CD        32.0310   57.2720   -6.8110 C.3   107  LYS107      0.0206
     33  CE        31.0730   58.3690   -7.2350 C.3   107  LYS107      0.1093
     34  NZ        31.3080   58.7060   -8.6600 N.3   107  LYS107     -0.1314
     35  N         27.7700   54.1560   -8.1880 N.am  108  THR108     -0.1937
     36  CA        26.4150   53.7310   -7.8610 C.3   108  THR108      0.2028
     37  C         26.1270   52.3570   -8.4670 C.2   108  THR108      0.2642
     38  O         25.4230   51.5350   -7.8700 O.2   108  THR108     -0.2714
     39  CB        25.4080   54.7890   -8.3560 C.3   108  THR108      0.1808
     40  OG1       25.6310   56.0060   -7.6230 O.3   108  THR108     -0.2208
     41  CG2       23.9590   54.3230   -8.1440 C.3   108  THR108      0.0379
     42  N         26.6910   52.1070   -9.6420 N.am  109  GLN109     -0.1976
     43  CA        26.5140   50.8190  -10.3040 C.3   109  GLN109      0.1601
     44  C         27.0860   49.7030   -9.4250 C.2   109  GLN109      0.2287
     45  O         26.4480   48.6780   -9.2090 O.2   109  GLN109     -0.2864
     46  CB        27.2070   50.8320  -11.6710 C.3   109  GLN109      0.0394
     47  CG        26.5860   51.8290  -12.6690 C.3   109  GLN109      0.0908
     48  CD        25.0810   51.6810  -12.7640 C.2   109  GLN109      0.2608
     49  OE1       24.5720   50.6620  -13.2470 O.2   109  GLN109     -0.2717
     50  NE2       24.3540   52.6930  -12.2850 N.am  109  GLN109     -0.0878
     51  N         19.6490   58.3090   -6.0920 N.3   149  THR149     -0.1218
     52  CA        19.8910   57.5480   -7.3100 C.3   149  THR149      0.1862
     53  C         19.6550   56.0430   -7.1940 C.2   149  THR149      0.2287
     54  O         20.0100   55.2850   -8.1040 O.2   149  THR149     -0.2866
     55  CB        21.3100   57.8010   -7.8750 C.3   149  THR149      0.1770
     56  OG1       22.2740   57.7500   -6.8180 O.3   149  THR149     -0.2211
     57  CG2       21.3720   59.1650   -8.5720 C.3   149  THR149      0.0375
     58  N         17.0370   49.0680  -12.0010 N.3   154  ARG154     -0.1245
     59  CA        18.4020   48.6290  -12.2610 C.3   154  ARG154      0.1563
     60  C         18.7010   47.3740  -11.4590 C.2   154  ARG154      0.2260
     61  O         19.4010   46.4840  -11.9350 O.2   154  ARG154     -0.2867
     62  CB        19.4030   49.7310  -11.9050 C.3   154  ARG154      0.0307
     63  CG        20.8400   49.4090  -12.2810 C.3   154  ARG154      0.0489
     64  CD        20.9930   49.0040  -13.7590 C.3   154  ARG154      0.2205
     65  NE        22.3890   49.0930  -14.1840 N.pl3 154  ARG154     -0.0865
     66  CZ        22.9420   48.3940  -15.1740 C.cat 154  ARG154      0.5346
     67  NH1       24.2270   48.5650  -15.4680 N.pl3 154  ARG154      0.1354
     68  NH2       22.2290   47.5210  -15.8670 N.pl3 154  ARG154      0.1354
     69  N         17.0080   44.4700  -13.2610 N.3   157  GLN157     -0.1245
     70  CA        17.7290   44.1610  -14.4910 C.3   157  GLN157      0.1566
     71  C         18.9980   43.3470  -14.2610 C.2   157  GLN157      0.2260
     72  O         19.2460   42.3700  -14.9640 O.2   157  GLN157     -0.2867
     73  CB        18.0620   45.4590  -15.2330 C.3   157  GLN157      0.0367
     74  CG        18.8610   45.2610  -16.5020 C.3   157  GLN157      0.0905
     75  CD        19.0890   46.5620  -17.2510 C.2   157  GLN157      0.2608
     76  OE1       19.5950   47.5410  -16.6910 O.2   157  GLN157     -0.2717
     77  NE2       18.7210   46.5780  -18.5280 N.am  157  GLN157     -0.0878
     78  N         32.5040   61.0610   -4.3860 N.3   253  GLN253     -0.1245
     79  CA        32.6340   61.8060   -5.6290 C.3   253  GLN253      0.1566
     80  C         33.8620   62.7180   -5.5530 C.2   253  GLN253      0.2260
     81  O         34.0240   63.4630   -4.5950 O.2   253  GLN253     -0.2867
     82  CB        31.3790   62.6550   -5.8480 C.3   253  GLN253      0.0367
     83  CG        31.2300   63.2490   -7.2400 C.3   253  GLN253      0.0905
     84  CD        30.3950   62.3760   -8.1670 C.2   253  GLN253      0.2608
     85  OE1       29.9670   62.8270   -9.2260 O.2   253  GLN253     -0.2717
     86  NE2       30.1600   61.1270   -7.7750 N.am  253  GLN253     -0.0878
     87  N         36.3660   56.2730  -15.8370 N.3   267  LYS267     -0.1245
     88  CA        35.7070   55.7370  -17.0160 C.3   267  LYS267      0.1561
     89  C         36.7320   55.5410  -18.1190 C.2   267  LYS267      0.2260
     90  O         37.5590   56.4130  -18.3710 O.2   267  LYS267     -0.2867
     91  CB        34.5990   56.6900  -17.4780 C.3   267  LYS267      0.0271
     92  CG        33.5920   56.0700  -18.4430 C.3   267  LYS267      0.0035
     93  CD        32.4520   57.0430  -18.7400 C.3   267  LYS267      0.0206
     94  CE        31.4200   56.4430  -19.7000 C.3   267  LYS267      0.1093
     95  NZ        31.9990   56.0660  -21.0310 N.3   267  LYS267     -0.1314
     96  N         35.9080   50.4260  -17.6970 N.3   273  ARG273     -0.1245
     97  CA        36.0480   51.1080  -16.4190 C.3   273  ARG273      0.1563
     98  C         37.3420   50.5930  -15.7980 C.2   273  ARG273      0.2260
     99  O         37.6850   49.4210  -15.9460 O.2   273  ARG273     -0.2867
    100  CB        34.8690   50.7790  -15.5000 C.3   273  ARG273      0.0307
    101  CG        33.5300   51.3030  -15.9890 C.3   273  ARG273      0.0489
    102  CD        33.4950   52.8190  -15.9750 C.3   273  ARG273      0.2205
    103  NE        32.1670   53.3270  -16.2960 N.pl3 273  ARG273     -0.0865
    104  CZ        31.6040   53.2530  -17.4960 C.cat 273  ARG273      0.5346
    105  NH1       32.2580   52.6920  -18.5070 N.pl3 273  ARG273      0.1354
    106  NH2       30.3810   53.7290  -17.6820 N.pl3 273  ARG273      0.1354
    107  N         30.6400   47.9990  -17.5700 N.3   292  ILE292     -0.1231
    108  CA        29.2850   48.1690  -17.0860 C.3   292  ILE292      0.1692
    109  C         28.3670   48.0510  -18.3020 C.2   292  ILE292      0.2593
    110  O         28.4580   48.8290  -19.2490 O.2   292  ILE292     -0.2718
    111  CB        29.0980   49.5450  -16.4220 C.3   292  ILE292      0.0266
    112  CG1       30.0370   49.6760  -15.2130 C.3   292  ILE292      0.0019
    113  CG2       27.6490   49.7100  -15.9840 C.3   292  ILE292      0.0020
    114  CD1       29.9660   51.0400  -14.5090 C.3   292  ILE292      0.0001
    115  N         27.4950   47.0580  -18.2730 N.am  293  THR293     -0.1939
    116  CA        26.5700   46.8120  -19.3690 C.3   293  THR293      0.2028
    117  C         25.1790   46.6890  -18.7670 C.2   293  THR293      0.2642
    118  O         24.9850   46.9820  -17.5860 O.2   293  THR293     -0.2714
    119  CB        26.9200   45.4880  -20.0810 C.3   293  THR293      0.1808
    120  OG1       26.6620   44.3960  -19.1900 O.3   293  THR293     -0.2208
    121  CG2       28.4080   45.4610  -20.4710 C.3   293  THR293      0.0379
    122  N         24.2120   46.2420  -19.5630 N.am  294  GLU294     -0.1976
    123  CA        22.8600   46.0880  -19.0510 C.3   294  GLU294      0.1602
    124  C         22.8250   44.9770  -18.0140 C.2   294  GLU294      0.2287
    125  O         21.8900   44.8860  -17.2240 O.2   294  GLU294     -0.2864
    126  CB        21.8660   45.7930  -20.1880 C.3   294  GLU294      0.0415
    127  CG        22.4920   45.4530  -21.5330 C.3   294  GLU294      0.1163
    128  CD        23.1350   44.0790  -21.5710 C.2   294  GLU294      0.3649
    129  OE1       22.4460   43.0820  -21.2620 O.co2 294  GLU294     -0.2457
    130  OE2       24.3300   43.9960  -21.9210 O.co2 294  GLU294     -0.2457
@<TRIPOS>BOND
     1   130   128   ar
     2   128   127    1
     3   128   129   ar
     4   127   126    1
     5    95    94    1
     6   121   119    1
     7   126   123    1
     8   119   116    1
     9   119   120    1
    10    94    93    1
    11   122   123    1
    12   122   117   am
    13   116   117    1
    14   116   115    1
    15   110   109    2
    16   123   124    1
    17   117   118    2
    18    93    92    1
    19    77    75   am
    20   105   104    1
    21    92    91    1
    22    90    89    2
    23   109   115   am
    24   109   108    1
    25    89    88    1
    26   124   125    2
    27    96    97    1
    28   106   104    1
    29   107   108    1
    30   104   103    2
    31    91    88    1
    32    75    76    2
    33    75    74    1
    34   108   111    1
    35    88    87    1
    36    74    73    1
    37   111   113    1
    38   111   112    1
    39    97    98    1
    40    97   100    1
    41   103   102    1
    42   101   102    1
    43   101   100    1
    44    99    98    2
    45    68    66    1
    46    67    66    1
    47    73    70    1
    48   112   114    1
    49    66    65    2
    50    15    14    2
    51    72    71    2
    52    70    71    1
    53    70    69    1
    54    65    64    1
    55    14    13    1
    56    14    16   am
    57    13    12    1
    58     4     3    2
    59    64    63    1
    60    17    16    1
    61    17    18    1
    62    17    20    1
    63    19    18    2
    64    49    48    2
    65     3    12   am
    66     3     2    1
    67    18    22   am
    68    48    47    1
    69    48    50   am
    70    47    46    1
    71     8    10   ar
    72     8     6   ar
    73    20    21    1
    74    10    11   ar
    75    63    62    1
    76    59    58    1
    77    59    62    1
    78    59    60    1
    79    22    23    1
    80     5     6    1
    81     5     2    1
    82    61    60    2
    83    23    24    1
    84     6     7   ar
    85     2     1    1
    86    46    43    1
    87    11     9   ar
    88     7     9   ar
    89    24    25    2
    90    24    26   am
    91    43    42    1
    92    43    44    1
    93    42    37   am
    94    26    27    1
    95    44    45    2
    96    85    84    2
    97    34    33    1
    98    57    55    1
    99    37    38    2
   100    37    36    1
   101    39    41    1
   102    39    36    1
   103    39    40    1
   104    35    36    1
   105    35    28   am
   106    84    86   am
   107    84    83    1
   108    54    53    2
   109    27    28    1
   110    27    30    1
   111    55    52    1
   112    55    56    1
   113    28    29    2
   114    31    30    1
   115    31    32    1
   116    52    53    1
   117    52    51    1
   118    83    82    1
   119    33    32    1
   120    82    79    1
   121    79    80    1
   122    79    78    1
   123    80    81    2
