@<TRIPOS>MOLECULE
tmp/2fpuB00.pdb
 107 102 0 0 0
SMALL
GASTEIGER

@<TRIPOS>ATOM
      1  N         36.3880    9.6390  -10.5710 N.3     7  ASP7       -0.1239
      2  CA        35.5610    8.4600  -10.7880 C.3     7  ASP7        0.1674
      3  C         34.2490    8.6010  -10.0070 C.2     7  ASP7        0.2266
      4  O         34.1910    9.3470   -9.0330 O.2     7  ASP7       -0.2867
      5  CB        36.3430    7.2590  -10.2830 C.3     7  ASP7        0.1410
      6  CG        35.5700    5.9830  -10.3730 C.2     7  ASP7        0.3668
      7  OD1       35.0230    5.6780  -11.4600 O.co2   7  ASP7       -0.2456
      8  OD2       35.4990    5.1980   -9.4060 O.co2   7  ASP7       -0.2456
      9  N         31.5850    5.5950   -9.2380 N.3     9  ASP9       -0.1239
     10  CA        31.2420    4.4220   -8.4200 C.3     9  ASP9        0.1674
     11  C         32.4130    3.9910   -7.5430 C.2     9  ASP9        0.2266
     12  O         33.5020    3.7200   -8.0460 O.2     9  ASP9       -0.2867
     13  CB        30.8420    3.2180   -9.2900 C.3     9  ASP9        0.1410
     14  CG        29.5560    3.4410  -10.0870 C.2     9  ASP9        0.3668
     15  OD1       29.0060    4.5630  -10.1360 O.co2   9  ASP9       -0.2456
     16  OD2       29.0410    2.5260  -10.7400 O.co2   9  ASP9       -0.2456
     17  N         29.8880    1.6170   -4.4320 N.3    15  GLU15      -0.1245
     18  CA        29.6930    0.7310   -5.5810 C.3    15  GLU15       0.1567
     19  C         29.0900   -0.5850   -5.0790 C.2    15  GLU15       0.2260
     20  O         29.6710   -1.2190   -4.2000 O.2    15  GLU15      -0.2867
     21  CB        31.0340    0.4690   -6.2750 C.3    15  GLU15       0.0388
     22  CG        30.8950   -0.4920   -7.4450 C.3    15  GLU15       0.1160
     23  CD        32.1010   -0.5040   -8.3600 C.2    15  GLU15       0.3649
     24  OE1       33.1540   -1.0120   -7.9400 O.co2  15  GLU15      -0.2457
     25  OE2       31.9750   -0.0350   -9.5160 O.co2  15  GLU15      -0.2457
     26  N         26.4550   -6.4260   -8.4730 N.3    19  ASP19      -0.1225
     27  CA        26.5390   -6.2330   -9.9160 C.3    19  ASP19       0.1805
     28  C         27.2110   -4.9070  -10.3000 C.2    19  ASP19       0.2598
     29  O         27.2640   -4.5640  -11.4920 O.2    19  ASP19      -0.2718
     30  CB        25.1390   -6.3110  -10.5190 C.3    19  ASP19       0.1424
     31  CG        24.1800   -5.3000   -9.9100 C.2    19  ASP19       0.3668
     32  OD1       24.6170   -4.3510   -9.2070 O.co2  19  ASP19      -0.2456
     33  OD2       22.9520   -5.3660  -10.1000 O.co2  19  ASP19      -0.2456
     34  N         27.7090   -4.1710   -9.3040 N.am   20  PHE20      -0.1962
     35  CA        28.4280   -2.9020   -9.5500 C.3    20  PHE20       0.1771
     36  C         27.5880   -1.8500  -10.3110 C.2    20  PHE20       0.2619
     37  O         28.1490   -1.0140  -11.0120 O.2    20  PHE20      -0.2715
     38  CB        29.7710   -3.1680  -10.2560 C.3    20  PHE20       0.0574
     39  CG        30.5170   -4.3380   -9.6810 C.ar   20  PHE20      -0.0200
     40  CD1       31.2210   -4.2070   -8.4860 C.ar   20  PHE20      -0.0042
     41  CD2       30.4560   -5.5880  -10.2940 C.ar   20  PHE20      -0.0042
     42  CE1       31.8840   -5.3080   -7.9170 C.ar   20  PHE20      -0.0003
     43  CE2       31.1190   -6.6910   -9.7320 C.ar   20  PHE20      -0.0003
     44  CZ        31.8290   -6.5460   -8.5420 C.ar   20  PHE20      -0.0000
     45  N         26.2580   -1.8850  -10.1540 N.am   21  GLN21      -0.1977
     46  CA        25.3390   -0.9630  -10.8620 C.3    21  GLN21       0.1601
     47  C         24.4770   -0.2350   -9.8720 C.2    21  GLN21       0.2287
     48  O         23.7370   -0.8720   -9.1450 O.2    21  GLN21      -0.2864
     49  CB        24.3720   -1.7040  -11.8250 C.3    21  GLN21       0.0394
     50  CG        24.9970   -2.7110  -12.6940 C.3    21  GLN21       0.0908
     51  CD        24.2590   -2.9570  -14.0140 C.2    21  GLN21       0.2608
     52  OE1       24.9080   -3.2260  -14.9970 O.2    21  GLN21      -0.2717
     53  NE2       22.9170   -2.9240  -14.0110 N.am   21  GLN21      -0.0878
     54  N         33.7130    8.0770  -15.8130 N.3    52  THR52      -0.1203
     55  CA        33.1870    6.8050  -15.3160 C.3    52  THR52       0.1994
     56  C         32.8580    5.7770  -16.4180 C.2    52  THR52       0.2618
     57  O         32.3570    6.1460  -17.4840 O.2    52  THR52      -0.2717
     58  CB        31.9360    7.0970  -14.4340 C.3    52  THR52       0.1784
     59  OG1       31.3910    5.8700  -13.9320 O.3    52  THR52      -0.2211
     60  CG2       30.7930    7.7070  -15.2640 C.3    52  THR52       0.0376
     61  N         33.1790    4.5020  -16.1610 N.am   53  ASN53      -0.1960
     62  CA        32.7120    3.3860  -17.0130 C.3    53  ASN53       0.1819
     63  C         31.3840    2.8870  -16.4700 C.2    53  ASN53       0.2621
     64  O         31.2780    2.6020  -15.2680 O.2    53  ASN53      -0.2715
     65  CB        33.6770    2.1980  -16.9790 C.3    53  ASN53       0.1195
     66  CG        34.9880    2.4620  -17.6900 C.2    53  ASN53       0.2630
     67  OD1       35.0890    3.3480  -18.5440 O.2    53  ASN53      -0.2716
     68  ND2       36.0110    1.6790  -17.3380 N.am   53  ASN53      -0.0877
     69  N         30.3730    2.7840  -17.3300 N.am   54  GLN54      -0.1963
     70  CA        29.0680    2.2820  -16.8920 C.3    54  GLN54       0.1733
     71  C         28.6490    1.1570  -17.8380 C.2    54  GLN54       0.2616
     72  O         27.8630    1.3750  -18.7770 O.2    54  GLN54      -0.2715
     73  CB        28.0340    3.4320  -16.8400 C.3    54  GLN54       0.0408
     74  CG        28.3490    4.5160  -15.7730 C.3    54  GLN54       0.0908
     75  CD        28.1560    4.0210  -14.3300 C.2    54  GLN54       0.2608
     76  OE1       27.2910    3.1890  -14.0610 O.2    54  GLN54      -0.2717
     77  NE2       28.9500    4.5570  -13.4050 N.am   54  GLN54      -0.0878
     78  N         29.2100   -0.0280  -17.6000 N.am   55  ASP55      -0.1971
     79  CA        29.0800   -1.1850  -18.5050 C.3    55  ASP55       0.1709
     80  C         27.6320   -1.4300  -18.8930 C.2    55  ASP55       0.2293
     81  O         26.7930   -1.7060  -18.0280 O.2    55  ASP55      -0.2864
     82  CB        29.5980   -2.4750  -17.8590 C.3    55  ASP55       0.1436
     83  CG        31.0620   -2.4230  -17.4630 C.2    55  ASP55       0.3671
     84  OD1       31.5980   -1.3470  -17.1200 O.co2  55  ASP55      -0.2456
     85  OD2       31.7610   -3.4670  -17.4430 O.co2  55  ASP55      -0.2456
     86  N         21.3900   -2.6960  -18.2690 N.3    62  PHE62      -0.1241
     87  CA        21.4910   -1.5340  -17.3890 C.3    62  PHE62       0.1605
     88  C         20.7150   -0.3740  -18.0300 C.2    62  PHE62       0.2264
     89  O         21.3220    0.5550  -18.5570 O.2    62  PHE62      -0.2867
     90  CB        22.9900   -1.2070  -17.1490 C.3    62  PHE62       0.0534
     91  CG        23.2550   -0.1610  -16.0840 C.ar   62  PHE62      -0.0203
     92  CD1       22.2490    0.3190  -15.2560 C.ar   62  PHE62      -0.0042
     93  CD2       24.5500    0.3280  -15.9090 C.ar   62  PHE62      -0.0042
     94  CE1       22.5170    1.2880  -14.2690 C.ar   62  PHE62      -0.0003
     95  CE2       24.8310    1.2950  -14.9160 C.ar   62  PHE62      -0.0003
     96  CZ        23.8040    1.7630  -14.1010 C.ar   62  PHE62      -0.0000
     97  N         40.0110    2.3200   -8.0690 N.3   126  ARG126     -0.1245
     98  CA        40.5220    1.0980   -8.7340 C.3   126  ARG126      0.1563
     99  C         41.8820    1.3030   -9.4180 C.2   126  ARG126      0.2260
    100  O         42.2550    2.4290   -9.7670 O.2   126  ARG126     -0.2867
    101  CB        39.5500    0.6010   -9.8140 C.3   126  ARG126      0.0307
    102  CG        38.2320   -0.0250   -9.3740 C.3   126  ARG126      0.0489
    103  CD        37.4310   -0.5230  -10.5750 C.3   126  ARG126      0.2205
    104  NE        36.0320   -0.8310  -10.2930 N.pl3 126  ARG126     -0.0865
    105  CZ        35.2380   -1.5410  -11.0950 C.cat 126  ARG126      0.5346
    106  NH1       35.7000   -2.0370  -12.2410 N.pl3 126  ARG126      0.1354
    107  NH2       33.9730   -1.7680  -10.7460 N.pl3 126  ARG126      0.1354
@<TRIPOS>BOND
     1    80    79    1
     2    80    81    2
     3    72    71    2
     4    89    88    2
     5    67    66    2
     6    79    82    1
     7    79    78    1
     8    86    87    1
     9    88    87    1
    10    82    83    1
    11    71    78   am
    12    71    70    1
    13    66    68   am
    14    66    65    1
    15    57    56    2
    16    83    85   ar
    17    83    84   ar
    18    87    90    1
    19    69    70    1
    20    69    63   am
    21    90    91    1
    22    62    65    1
    23    62    63    1
    24    62    61    1
    25    70    73    1
    26    73    74    1
    27    63    64    2
    28    56    61   am
    29    56    55    1
    30    91    93   ar
    31    91    92   ar
    32    93    95   ar
    33    54    55    1
    34    74    75    1
    35    55    58    1
    36    60    58    1
    37    92    94   ar
    38    52    51    2
    39    95    96   ar
    40    58    59    1
    41    75    76    2
    42    75    77   am
    43    94    96   ar
    44    51    53   am
    45    51    50    1
    46    50    49    1
    47   106   105    1
    48    49    46    1
    49    29    28    2
    50     7     6   ar
    51   105   107    1
    52   105   104    2
    53    37    36    2
    54    46    45    1
    55    46    47    1
    56     2     1    1
    57     2     5    1
    58     2     3    1
    59    16    14   ar
    60   103   104    1
    61   103   102    1
    62    30    27    1
    63    30    31    1
    64     6     5    1
    65     6     8   ar
    66    36    45   am
    67    36    35    1
    68    28    27    1
    69    28    34   am
    70    41    43   ar
    71    41    39   ar
    72    38    39    1
    73    38    35    1
    74    15    14   ar
    75    33    31   ar
    76    14    13    1
    77     3     4    2
    78    27    26    1
    79    31    32   ar
    80    47    48    2
    81   101   102    1
    82   101    98    1
    83   100    99    2
    84    43    44   ar
    85    39    40   ar
    86    35    34    1
    87    25    23   ar
    88    99    98    1
    89    13    10    1
    90     9    10    1
    91    98    97    1
    92    44    42   ar
    93    40    42   ar
    94    10    11    1
    95    23    24   ar
    96    23    22    1
    97    12    11    2
    98    22    21    1
    99    21    18    1
   100    18    19    1
   101    18    17    1
   102    19    20    2
