@<TRIPOS>MOLECULE
tmp/2fpvA02.pdb
 211 203 0 0 0
SMALL
GASTEIGER

@<TRIPOS>ATOM
      1  N         23.7730    7.0160   68.6640 N.3     6  TYR6       -0.1241
      2  CA        24.9140    7.8320   68.2670 C.3     6  TYR6        0.1605
      3  C         24.8630    9.2240   68.8820 C.2     6  TYR6        0.2264
      4  O         25.8670    9.7340   69.3770 O.2     6  TYR6       -0.2867
      5  CB        24.9780    7.9460   66.7400 C.3     6  TYR6        0.0534
      6  CG        25.6970    6.7960   66.0730 C.ar    6  TYR6       -0.0201
      7  CD1       25.1280    5.5300   66.0140 C.ar    6  TYR6       -0.0009
      8  CD2       26.9610    6.9730   65.5240 C.ar    6  TYR6       -0.0009
      9  CE1       25.8020    4.4710   65.4260 C.ar    6  TYR6        0.0417
     10  CE2       27.6410    5.9240   64.9380 C.ar    6  TYR6        0.0417
     11  CZ        27.0590    4.6750   64.8920 C.ar    6  TYR6        0.1957
     12  OH        27.7440    3.6270   64.3200 O.3     6  TYR6       -0.2866
     13  N         27.4080    7.1780   71.6770 N.3    10  LEU10      -0.1231
     14  CA        28.6340    7.0770   70.8970 C.3    10  LEU10       0.1693
     15  C         29.3620    8.3990   70.6550 C.2    10  LEU10       0.2591
     16  O         30.5050    8.5610   71.0730 O.2    10  LEU10      -0.2718
     17  CB        28.3470    6.3730   69.5650 C.3    10  LEU10       0.0284
     18  CG        29.5550    5.8040   68.8110 C.3    10  LEU10       0.0019
     19  CD1       29.0940    4.6860   67.8860 C.3    10  LEU10       0.0001
     20  CD2       30.2580    6.9020   68.0280 C.3    10  LEU10       0.0001
     21  N         28.7100    9.3450   69.9860 N.am   11  MET11      -0.1979
     22  CA        29.3580   10.6220   69.7080 C.3    11  MET11       0.1605
     23  C         29.8070   11.3560   70.9710 C.2    11  MET11       0.2287
     24  O         30.9310   11.8490   71.0380 O.2    11  MET11      -0.2864
     25  CB        28.4410   11.5100   68.8600 C.3    11  MET11       0.0413
     26  CG        28.1360   10.9230   67.4840 C.3    11  MET11       0.0598
     27  SD        29.6230   10.5180   66.5240 S.3    11  MET11      -0.1393
     28  CE        30.0590   12.1440   65.8700 C.3    11  MET11       0.0692
     29  N         32.9010    9.7140   72.3000 N.3    14  LEU14      -0.1231
     30  CA        34.0320    9.9740   71.4200 C.3    14  LEU14       0.1693
     31  C         34.5890   11.3800   71.6310 C.2    14  LEU14       0.2591
     32  O         35.8010   11.5690   71.7220 O.2    14  LEU14      -0.2718
     33  CB        33.6030    9.7980   69.9620 C.3    14  LEU14       0.0284
     34  CG        34.6550   10.0540   68.8820 C.3    14  LEU14       0.0019
     35  CD1       35.8630    9.1560   69.0970 C.3    14  LEU14       0.0001
     36  CD2       34.0370    9.7950   67.5240 C.3    14  LEU14       0.0001
     37  N         33.7000   12.3650   71.7120 N.am   15  GLN15      -0.1979
     38  CA        34.1210   13.7480   71.9040 C.3    15  GLN15       0.1601
     39  C         34.7210   13.9770   73.2880 C.2    15  GLN15       0.2287
     40  O         35.4950   14.9110   73.4910 O.2    15  GLN15      -0.2864
     41  CB        32.9400   14.6960   71.6790 C.3    15  GLN15       0.0394
     42  CG        32.3920   14.6580   70.2580 C.3    15  GLN15       0.0908
     43  CD        31.3190   15.7020   70.0130 C.2    15  GLN15       0.2608
     44  OE1       30.2880   15.7190   70.6850 O.2    15  GLN15      -0.2717
     45  NE2       31.5580   16.5790   69.0430 N.am   15  GLN15      -0.0878
     46  N         38.9030   17.5440   68.9290 N.3    20  PRO20      -0.2116
     47  CA        38.2590   17.6860   67.6180 C.3    20  PRO20       0.1372
     48  C         39.0310   17.1420   66.4150 C.2    20  PRO20       0.2244
     49  O         38.4920   16.3610   65.6320 O.2    20  PRO20      -0.2868
     50  CB        38.0260   19.1900   67.5130 C.3    20  PRO20       0.0268
     51  CG        37.8240   19.5950   68.9300 C.3    20  PRO20       0.0207
     52  CD        38.9040   18.8290   69.6480 C.3    20  PRO20       0.0892
     53  N         39.4540   13.3840   66.5960 N.3    23  ALA23      -0.1231
     54  CA        38.1680   12.7490   66.3520 C.3    23  ALA23       0.1694
     55  C         37.9050   12.7190   64.8500 C.2    23  ALA23       0.2592
     56  O         37.4040   11.7300   64.3180 O.2    23  ALA23      -0.2718
     57  CB        37.0560   13.5150   67.0710 C.3    23  ALA23       0.0304
     58  N         38.2470   13.8070   64.1660 N.am   24  HIS24      -0.1976
     59  CA        38.0480   13.8730   62.7250 C.3    24  HIS24       0.1656
     60  C         38.8960   12.8290   62.0050 C.2    24  HIS24       0.2291
     61  O         38.4070   12.1160   61.1300 O.2    24  HIS24      -0.2864
     62  CB        38.4070   15.2550   62.1880 C.3    24  HIS24       0.0771
     63  CG        38.4330   15.3230   60.6940 C.ar   24  HIS24       0.0820
     64  ND1       37.3070   15.1360   59.9210 N.ar   24  HIS24      -0.2267
     65  CD2       39.4560   15.5140   59.8280 C.ar   24  HIS24       0.1154
     66  CE1       37.6350   15.2100   58.6440 C.ar   24  HIS24       0.1986
     67  NE2       38.9330   15.4380   58.5590 N.ar   24  HIS24      -0.2212
     68  N         40.0220   10.0580   63.1040 N.3    26  LEU26      -0.1231
     69  CA        39.4680    8.7340   63.3670 C.3    26  LEU26       0.1693
     70  C         38.2350    8.5180   62.4950 C.2    26  LEU26       0.2591
     71  O         38.0080    7.4230   61.9810 O.2    26  LEU26      -0.2718
     72  CB        39.0870    8.5970   64.8420 C.3    26  LEU26       0.0284
     73  CG        38.5870    7.2130   65.2640 C.3    26  LEU26       0.0019
     74  CD1       39.6880    6.1870   65.0240 C.3    26  LEU26       0.0001
     75  CD2       38.1850    7.2310   66.7310 C.3    26  LEU26       0.0001
     76  N         37.4420    9.5740   62.3400 N.am   27  ALA27      -0.1980
     77  CA        36.2340    9.5320   61.5250 C.3    27  ALA27       0.1597
     78  C         36.5730    9.1530   60.0860 C.2    27  ALA27       0.2287
     79  O         35.9110    8.3100   59.4780 O.2    27  ALA27      -0.2864
     80  CB        35.5520   10.8930   61.5480 C.3    27  ALA27       0.0319
     81  N         37.6270    5.3430   60.0700 N.3    30  PHE30      -0.1227
     82  CA        36.4790    4.4440   60.1400 C.3    30  PHE30       0.1736
     83  C         35.6590    4.4550   58.8630 C.2    30  PHE30       0.2596
     84  O         35.2030    3.4120   58.3950 O.2    30  PHE30      -0.2718
     85  CB        35.5700    4.8170   61.3140 C.3    30  PHE30       0.0547
     86  CG        35.9270    4.1290   62.5990 C.ar   30  PHE30      -0.0202
     87  CD1       37.1590    4.3360   63.1950 C.ar   30  PHE30      -0.0042
     88  CD2       35.0290    3.2670   63.2070 C.ar   30  PHE30      -0.0042
     89  CE1       37.4900    3.6970   64.3770 C.ar   30  PHE30      -0.0003
     90  CE2       35.3530    2.6240   64.3890 C.ar   30  PHE30      -0.0003
     91  CZ        36.5870    2.8400   64.9740 C.ar   30  PHE30      -0.0000
     92  N         35.4680    5.6410   58.2990 N.am   31  THR31      -0.1953
     93  CA        34.6840    5.7620   57.0810 C.3    31  THR31       0.1897
     94  C         35.3750    5.0690   55.9090 C.2    31  THR31       0.2313
     95  O         34.7390    4.3380   55.1540 O.2    31  THR31      -0.2863
     96  CB        34.4270    7.2420   56.7420 C.3    31  THR31       0.1794
     97  OG1       33.7200    7.8570   57.8290 O.3    31  THR31      -0.2208
     98  CG2       33.5860    7.3660   55.4760 C.3    31  THR31       0.0378
     99  N         33.4690    1.0920   58.4450 N.3    35  LEU35      -0.1231
    100  CA        32.9720    0.8000   59.7870 C.3    35  LEU35       0.1693
    101  C         31.8670    1.8030   60.0860 C.2    35  LEU35       0.2592
    102  O         32.0550    2.7420   60.8610 O.2    35  LEU35      -0.2718
    103  CB        34.0990    0.9410   60.8130 C.3    35  LEU35       0.0284
    104  CG        35.3470    0.0940   60.5460 C.3    35  LEU35       0.0019
    105  CD1       36.3800    0.3430   61.6340 C.3    35  LEU35       0.0001
    106  CD2       34.9680   -1.3790   60.4930 C.3    35  LEU35       0.0001
    107  N         30.7130    1.5930   59.4610 N.am   36  LEU36      -0.1966
    108  CA        29.5750    2.4910   59.6150 C.3    36  LEU36       0.1713
    109  C         28.3080    1.7420   60.0030 C.2    36  LEU36       0.2458
    110  O         28.1840    0.5400   59.7660 O.2    36  LEU36      -0.2730
    111  CB        29.3230    3.2190   58.2930 C.3    36  LEU36       0.0310
    112  CG        30.5400    3.7960   57.5660 C.3    36  LEU36       0.0022
    113  CD1       30.1590    4.1920   56.1470 C.3    36  LEU36       0.0001
    114  CD2       31.0710    4.9850   58.3310 C.3    36  LEU36       0.0001
    115  N         27.3450    2.4500   60.6110 N.am   37  PRO37      -0.2727
    116  CA        26.0850    1.8240   61.0130 C.3    37  PRO37       0.1402
    117  C         25.2830    1.4830   59.7600 C.2    37  PRO37       0.2269
    118  O         25.4920    2.0790   58.7020 O.2    37  PRO37      -0.2865
    119  CB        25.4220    2.9040   61.8630 C.3    37  PRO37       0.0296
    120  CG        25.9160    4.1700   61.2310 C.3    37  PRO37       0.0237
    121  CD        27.3790    3.8670   61.0130 C.3    37  PRO37       0.0939
    122  N         35.4820   17.5360   55.0570 N.3    66  PHE66      -0.1241
    123  CA        35.4850   16.2930   55.8180 C.3    66  PHE66       0.1605
    124  C         36.5190   15.3440   55.2170 C.2    66  PHE66       0.2264
    125  O         37.3240   14.7490   55.9350 O.2    66  PHE66      -0.2867
    126  CB        34.1170   15.6160   55.8040 C.3    66  PHE66       0.0534
    127  CG        34.0970   14.3260   56.5690 C.ar   66  PHE66      -0.0203
    128  CD1       34.1210   14.3300   57.9550 C.ar   66  PHE66      -0.0042
    129  CD2       34.1410   13.1100   55.9040 C.ar   66  PHE66      -0.0042
    130  CE1       34.1930   13.1440   58.6670 C.ar   66  PHE66      -0.0003
    131  CE2       34.2140   11.9200   56.6090 C.ar   66  PHE66      -0.0003
    132  CZ        34.2410   11.9400   57.9940 C.ar   66  PHE66      -0.0000
    133  N         27.5870    5.7240   53.5160 N.3    79  MET79      -0.1245
    134  CA        26.9140    6.4130   54.6130 C.3    79  MET79       0.1570
    135  C         25.5430    6.9290   54.1690 C.2    79  MET79       0.2261
    136  O         24.6910    7.2540   54.9980 O.2    79  MET79      -0.2867
    137  CB        27.7840    7.5750   55.1050 C.3    79  MET79       0.0387
    138  CG        27.6290    7.8920   56.5780 C.3    79  MET79       0.0595
    139  SD        28.7530    9.1990   57.1150 S.3    79  MET79      -0.1393
    140  CE        30.2680    8.2960   57.3550 C.3    79  MET79       0.0692
    141  N         40.8550   23.5990   65.3770 N.3   102  VAL102     -0.1245
    142  CA        39.4360   23.2960   65.2160 C.3   102  VAL102      0.1561
    143  C         38.8750   23.2280   66.6320 C.2   102  VAL102      0.2260
    144  O         39.5170   22.6930   67.5430 O.2   102  VAL102     -0.2867
    145  CB        39.1980   21.9710   64.4380 C.3   102  VAL102      0.0252
    146  CG1       39.8290   20.8020   65.1620 C.3   102  VAL102      0.0019
    147  CG2       37.7020   21.7540   64.2380 C.3   102  VAL102      0.0019
    148  N         35.1330   22.8820   69.1690 N.3   104  ARG104     -0.1245
    149  CA        33.7170   22.5710   69.3020 C.3   104  ARG104      0.1563
    150  C         33.0120   23.6110   70.1680 C.2   104  ARG104      0.2260
    151  O         33.5700   24.0930   71.1560 O.2   104  ARG104     -0.2867
    152  CB        33.5240   21.2040   69.9660 C.3   104  ARG104      0.0307
    153  CG        34.1460   20.0160   69.2530 C.3   104  ARG104      0.0489
    154  CD        34.0460   18.7850   70.1560 C.3   104  ARG104      0.2205
    155  NE        34.5780   17.5740   69.5410 N.pl3 104  ARG104     -0.0865
    156  CZ        35.4380   16.7520   70.1340 C.cat 104  ARG104      0.5346
    157  NH1       35.8710   17.0130   71.3600 N.pl3 104  ARG104      0.1354
    158  NH2       35.8580   15.6610   69.5060 N.pl3 104  ARG104      0.1354
    159  N         30.8190   24.6990   65.2280 N.3   111  VAL111     -0.1245
    160  CA        32.2500   24.4270   65.2100 C.3   111  VAL111      0.1561
    161  C         32.9540   25.6480   64.6280 C.2   111  VAL111      0.2260
    162  O         32.3730   26.3920   63.8400 O.2   111  VAL111     -0.2867
    163  CB        32.5740   23.1890   64.3200 C.3   111  VAL111      0.0252
    164  CG1       34.0760   23.0930   64.0610 C.3   111  VAL111      0.0019
    165  CG2       32.0800   21.9150   65.0010 C.3   111  VAL111      0.0019
    166  N         41.8350   25.4940   59.8880 N.3   115  TYR115     -0.1241
    167  CA        42.8050   24.5230   59.3860 C.3   115  TYR115      0.1605
    168  C         43.8540   25.1700   58.4900 C.2   115  TYR115      0.2264
    169  O         45.0430   24.8470   58.5800 O.2   115  TYR115     -0.2867
    170  CB        42.1000   23.3980   58.6180 C.3   115  TYR115      0.0534
    171  CG        41.6880   22.2270   59.4820 C.ar  115  TYR115     -0.0201
    172  CD1       40.4010   22.1290   59.9990 C.ar  115  TYR115     -0.0009
    173  CD2       42.5940   21.2170   59.7860 C.ar  115  TYR115     -0.0009
    174  CE1       40.0270   21.0530   60.7930 C.ar  115  TYR115      0.0417
    175  CE2       42.2320   20.1410   60.5810 C.ar  115  TYR115      0.0417
    176  CZ        40.9480   20.0630   61.0800 C.ar  115  TYR115      0.1957
    177  OH        40.5870   18.9880   61.8610 O.3   115  TYR115     -0.2866
    178  N         28.0900   19.0580   57.0130 N.3   324  TYR324     -0.1241
    179  CA        29.3470   18.5870   57.5810 C.3   324  TYR324      0.1605
    180  C         29.2150   18.6330   59.1000 C.2   324  TYR324      0.2264
    181  O         29.2130   17.5980   59.7640 O.2   324  TYR324     -0.2867
    182  CB        30.5270   19.4600   57.1090 C.3   324  TYR324      0.0534
    183  CG        31.9050   19.0330   57.6160 C.ar  324  TYR324     -0.0201
    184  CD1       33.0600   19.6380   57.1300 C.ar  324  TYR324     -0.0009
    185  CD2       32.0480   18.0520   58.5970 C.ar  324  TYR324     -0.0009
    186  CE1       34.3130   19.2830   57.6030 C.ar  324  TYR324      0.0417
    187  CE2       33.3030   17.6940   59.0790 C.ar  324  TYR324      0.0417
    188  CZ        34.4310   18.3140   58.5780 C.ar  324  TYR324      0.1957
    189  OH        35.6770   17.9810   59.0660 O.3   324  TYR324     -0.2866
    190  N         27.1640   16.1380   61.0700 N.3   327  LEU327     -0.1231
    191  CA        27.7740   14.8150   61.1620 C.3   327  LEU327      0.1693
    192  C         28.6960   14.7310   62.3780 C.2   327  LEU327      0.2592
    193  O         28.7710   13.6940   63.0420 O.2   327  LEU327     -0.2718
    194  CB        28.5740   14.5170   59.8880 C.3   327  LEU327      0.0284
    195  CG        29.2680   13.1510   59.8180 C.3   327  LEU327      0.0019
    196  CD1       28.2190   12.0550   59.7760 C.3   327  LEU327      0.0001
    197  CD2       30.1600   13.0780   58.5840 C.3   327  LEU327      0.0001
    198  N         29.3830   15.8320   62.6770 N.am  328  THR328     -0.1953
    199  CA        30.3120   15.8590   63.7990 C.3   328  THR328      0.1897
    200  C         29.6080   15.7650   65.1450 C.2   328  THR328      0.2313
    201  O         30.2100   15.3680   66.1410 O.2   328  THR328     -0.2863
    202  CB        31.2020   17.1290   63.7670 C.3   328  THR328      0.1794
    203  OG1       30.4620   18.2610   64.2420 O.3   328  THR328     -0.2208
    204  CG2       31.6670   17.4040   62.3440 C.3   328  THR328      0.0378
    205  N         26.9560    9.3560   61.6600 N.3   332  PRO332     -0.2116
    206  CA        26.4030    8.8220   60.4090 C.3   332  PRO332      0.1372
    207  C         24.8770    8.7330   60.2880 C.2   332  PRO332      0.2244
    208  O         24.3250    8.9740   59.2150 O.2   332  PRO332     -0.2868
    209  CB        27.0760    7.4570   60.2950 C.3   332  PRO332      0.0268
    210  CG        28.4220    7.7150   60.8860 C.3   332  PRO332      0.0207
    211  CD        28.0870    8.5310   62.1230 C.3   332  PRO332      0.0892
@<TRIPOS>BOND
     1   133   134    1
     2   135   134    1
     3   135   136    2
     4   134   137    1
     5   122   123    1
     6   137   138    1
     7    95    94    2
     8   124   123    1
     9   124   125    2
    10    98    96    1
    11   126   123    1
    12   126   127    1
    13   129   127   ar
    14   129   131   ar
    15    94    93    1
    16   113   112    1
    17   127   128   ar
    18   138   139    1
    19   131   132   ar
    20    96    93    1
    21    96    97    1
    22   178   179    1
    23    93    92    1
    24   182   179    1
    25   182   183    1
    26   139   140    1
    27   184   186   ar
    28   184   183   ar
    29   112   111    1
    30   112   114    1
    31   179   180    1
    32   186   188   ar
    33   183   185   ar
    34   128   130   ar
    35   132   130   ar
    36   111   108    1
    37    92    83   am
    38    84    83    2
    39    99   100    1
    40   168   169    2
    41   168   167    1
    42    67    66   ar
    43    67    65   ar
    44   188   189    1
    45   188   187   ar
    46   197   195    1
    47   185   187   ar
    48   170   167    1
    49   170   171    1
    50    66    64   ar
    51   118   117    2
    52    83    82    1
    53   180   181    2
    54   208   207    2
    55   167   166    1
    56   107   108    1
    57   107   101   am
    58    79    78    2
    59   171   173   ar
    60   171   172   ar
    61   108   109    1
    62   117   116    1
    63   110   109    2
    64   196   195    1
    65   173   175   ar
    66   100   101    1
    67   100   103    1
    68   195   194    1
    69    65    63   ar
    70   194   191    1
    71    64    63   ar
    72   172   174   ar
    73   109   115   am
    74    81    82    1
    75   101   102    2
    76    78    77    1
    77    82    85    1
    78   207   206    1
    79   209   206    1
    80   209   210    1
    81   206   205    1
    82   106   104    1
    83   104   103    1
    84   104   105    1
    85   175   176   ar
    86   115   116    1
    87   115   121    1
    88    63    62    1
    89   174   176   ar
    90   210   211    1
    91   116   119    1
    92   121   120    1
    93   190   191    1
    94   176   177    1
    95    61    60    2
    96   191   192    1
    97   120   119    1
    98    85    86    1
    99    77    80    1
   100    77    76    1
   101   205   211    1
   102    71    70    2
   103    60    59    1
   104    62    59    1
   105    76    70   am
   106   204   202    1
   107   192   198   am
   108   192   193    2
   109    70    69    1
   110    86    87   ar
   111    86    88   ar
   112   198   199    1
   113    59    58    1
   114    68    69    1
   115    87    89   ar
   116    88    90   ar
   117    69    72    1
   118   202   199    1
   119   202   203    1
   120   199   200    1
   121   162   161    2
   122   164   163    1
   123    58    55   am
   124   147   145    1
   125    56    55    2
   126    12    11    1
   127   163   165    1
   128   163   160    1
   129    89    91   ar
   130    90    91   ar
   131   145   146    1
   132   145   142    1
   133   161   160    1
   134    72    73    1
   135    55    54    1
   136    11    10   ar
   137    11     9   ar
   138    10     8   ar
   139    74    73    1
   140   200   201    2
   141   160   159    1
   142   142   141    1
   143   142   143    1
   144    73    75    1
   145     9     7   ar
   146     8     6   ar
   147    49    48    2
   148    28    27    1
   149     7     6   ar
   150     6     5    1
   151    54    53    1
   152    54    57    1
   153    48    47    1
   154    27    26    1
   155   143   144    2
   156     5     2    1
   157    26    25    1
   158    50    47    1
   159    50    51    1
   160    36    34    1
   161    47    46    1
   162    19    18    1
   163    20    18    1
   164     2     1    1
   165     2     3    1
   166    18    17    1
   167    25    22    1
   168    34    35    1
   169    34    33    1
   170     3     4    2
   171    46    52    1
   172    51    52    1
   173    45    43   am
   174   148   149    1
   175   153   152    1
   176   153   154    1
   177   149   152    1
   178   149   150    1
   179   158   156    1
   180   155   156    2
   181   155   154    1
   182    17    14    1
   183    22    21    1
   184    22    23    1
   185    33    30    1
   186    21    15   am
   187    43    42    1
   188    43    44    2
   189   156   157    1
   190   150   151    2
   191    42    41    1
   192    15    14    1
   193    15    16    2
   194    14    13    1
   195    23    24    2
   196    30    31    1
   197    30    29    1
   198    31    37   am
   199    31    32    2
   200    41    38    1
   201    37    38    1
   202    38    39    1
   203    39    40    2
