@<TRIPOS>MOLECULE
tmp/2fpyA02.pdb
 211 203 0 0 0
SMALL
GASTEIGER

@<TRIPOS>ATOM
      1  N         50.8300   54.4890   -7.2140 N.3     6  TYR6       -0.1241
      2  CA        50.7510   53.1000   -6.7810 C.3     6  TYR6        0.1605
      3  C         49.4850   52.4490   -7.3210 C.2     6  TYR6        0.2264
      4  O         49.5150   51.3330   -7.8410 O.2     6  TYR6       -0.2867
      5  CB        50.7580   53.0110   -5.2520 C.3     6  TYR6        0.0534
      6  CG        52.1430   52.9220   -4.6530 C.ar    6  TYR6       -0.0201
      7  CD1       52.9990   54.0170   -4.6580 C.ar    6  TYR6       -0.0009
      8  CD2       52.6020   51.7320   -4.1030 C.ar    6  TYR6       -0.0009
      9  CE1       54.2760   53.9270   -4.1300 C.ar    6  TYR6        0.0417
     10  CE2       53.8750   51.6310   -3.5760 C.ar    6  TYR6        0.0417
     11  CZ        54.7080   52.7290   -3.5920 C.ar    6  TYR6        0.1957
     12  OH        55.9770   52.6240   -3.0740 O.3     6  TYR6       -0.2866
     13  N         52.2920   51.4120  -10.3550 N.3    10  LEU10      -0.1231
     14  CA        53.1030   50.4590   -9.6130 C.3    10  LEU10       0.1693
     15  C         52.4220   49.1270   -9.3060 C.2    10  LEU10       0.2591
     16  O         52.8980   48.0750   -9.7390 O.2    10  LEU10      -0.2718
     17  CB        53.6120   51.1050   -8.3210 C.3    10  LEU10       0.0284
     18  CG        54.7880   50.4080   -7.6280 C.3    10  LEU10       0.0019
     19  CD1       55.5140   51.4070   -6.7470 C.3    10  LEU10       0.0001
     20  CD2       54.2970   49.2170   -6.8150 C.3    10  LEU10       0.0001
     21  N         51.3170   49.1610   -8.5660 N.am   11  MET11      -0.1979
     22  CA        50.6250   47.9240   -8.2140 C.3    11  MET11       0.1605
     23  C         50.1650   47.1230   -9.4300 C.2    11  MET11       0.2287
     24  O         50.4010   45.9180   -9.5090 O.2    11  MET11      -0.2864
     25  CB        49.4360   48.2150   -7.2910 C.3    11  MET11       0.0413
     26  CG        49.8420   48.7520   -5.9260 C.3    11  MET11       0.0598
     27  SD        51.0360   47.6900   -5.0640 S.3    11  MET11      -0.1393
     28  CE        49.9420   46.4540   -4.3530 C.3    11  MET11       0.0692
     29  N         53.1060   45.4490  -10.9470 N.3    14  LEU14      -0.1231
     30  CA        53.5940   44.3970  -10.0680 C.3    14  LEU14       0.1693
     31  C         52.7160   43.1510  -10.1890 C.2    14  LEU14       0.2591
     32  O         53.2210   42.0360  -10.3150 O.2    14  LEU14      -0.2718
     33  CB        53.6040   44.8950   -8.6210 C.3    14  LEU14       0.0284
     34  CG        54.2500   43.9950   -7.5680 C.3    14  LEU14       0.0019
     35  CD1       55.6960   43.7150   -7.9500 C.3    14  LEU14       0.0001
     36  CD2       54.1830   44.6760   -6.2120 C.3    14  LEU14       0.0001
     37  N         51.4020   43.3450  -10.1640 N.am   15  GLN15      -0.1979
     38  CA        50.4710   42.2270  -10.2650 C.3    15  GLN15       0.1601
     39  C         50.5050   41.5770  -11.6440 C.2    15  GLN15       0.2287
     40  O         50.1520   40.4090  -11.7970 O.2    15  GLN15      -0.2864
     41  CB        49.0470   42.6840   -9.9370 C.3    15  GLN15       0.0394
     42  CG        48.8920   43.2350   -8.5240 C.3    15  GLN15       0.0908
     43  CD        47.4430   43.3810   -8.1020 C.2    15  GLN15       0.2608
     44  OE1       46.6520   44.0460   -8.7720 O.2    15  GLN15      -0.2717
     45  NE2       47.0870   42.7610   -6.9800 N.am   15  GLN15      -0.0878
     46  N         49.4680   36.0910   -7.4120 N.3    20  PRO20      -0.2116
     47  CA        49.0390   36.5000   -6.0700 C.3    20  PRO20       0.1372
     48  C         49.9470   36.0950   -4.9110 C.2    20  PRO20       0.2244
     49  O         50.4120   36.9480   -4.1580 O.2    20  PRO20      -0.2868
     50  CB        47.6470   35.8870   -5.9560 C.3    20  PRO20       0.0268
     51  CG        47.1480   35.9600   -7.3540 C.3    20  PRO20       0.0207
     52  CD        48.3440   35.4870   -8.1500 C.3    20  PRO20       0.0892
     53  N         53.3900   37.6850   -5.1420 N.3    23  ALA23      -0.1231
     54  CA        53.2880   39.1070   -4.8560 C.3    23  ALA23       0.1694
     55  C         53.2200   39.2960   -3.3450 C.2    23  ALA23       0.2592
     56  O         53.8480   40.1950   -2.7890 O.2    23  ALA23      -0.2718
     57  CB        52.0420   39.6820   -5.5130 C.3    23  ALA23       0.0304
     58  N         52.4550   38.4350   -2.6840 N.am   24  HIS24      -0.1976
     59  CA        52.3090   38.5140   -1.2380 C.3    24  HIS24       0.1656
     60  C         53.6360   38.2960   -0.5140 C.2    24  HIS24       0.2291
     61  O         54.0020   39.0710    0.3710 O.2    24  HIS24      -0.2864
     62  CB        51.2880   37.4860   -0.7530 C.3    24  HIS24       0.0771
     63  CG        51.1600   37.4320    0.7360 C.ar   24  HIS24       0.0820
     64  ND1       50.9130   38.5510    1.5000 N.ar   24  HIS24      -0.2267
     65  CD2       51.2610   36.3980    1.6030 C.ar   24  HIS24       0.1154
     66  CE1       50.8670   38.2100    2.7750 C.ar   24  HIS24       0.1986
     67  NE2       51.0760   36.9090    2.8650 N.ar   24  HIS24      -0.2212
     68  N         56.5930   38.7330   -1.5900 N.3    26  LEU26      -0.1231
     69  CA        57.4550   39.8780   -1.8490 C.3    26  LEU26       0.1693
     70  C         57.0140   41.0480   -0.9790 C.2    26  LEU26       0.2591
     71  O         57.8410   41.7980   -0.4580 O.2    26  LEU26      -0.2718
     72  CB        57.3740   40.2820   -3.3200 C.3    26  LEU26       0.0284
     73  CG        58.3710   41.3580   -3.7510 C.3    26  LEU26       0.0019
     74  CD1       59.7820   40.7940   -3.6290 C.3    26  LEU26       0.0001
     75  CD2       58.0920   41.7940   -5.1840 C.3    26  LEU26       0.0001
     76  N         55.7000   41.2010   -0.8370 N.am   27  ALA27      -0.1980
     77  CA        55.1270   42.2710   -0.0290 C.3    27  ALA27       0.1597
     78  C         55.6200   42.1590    1.4080 C.2    27  ALA27       0.2287
     79  O         56.0110   43.1520    2.0220 O.2    27  ALA27      -0.2864
     80  CB        53.6050   42.1900   -0.0600 C.3    27  ALA27       0.0319
     81  N         59.4610   43.0560    1.5000 N.3    30  PHE30      -0.1227
     82  CA        59.6770   44.4930    1.3670 C.3    30  PHE30       0.1736
     83  C         59.2570   45.2420    2.6200 C.2    30  PHE30       0.2596
     84  O         59.9420   46.1650    3.0620 O.2    30  PHE30      -0.2718
     85  CB        58.9020   45.0400    0.1660 C.3    30  PHE30       0.0547
     86  CG        59.6520   44.9480   -1.1310 C.ar   30  PHE30      -0.0202
     87  CD1       60.3050   43.7820   -1.4900 C.ar   30  PHE30      -0.0042
     88  CD2       59.7030   46.0310   -1.9920 C.ar   30  PHE30      -0.0042
     89  CE1       60.9960   43.6990   -2.6840 C.ar   30  PHE30      -0.0003
     90  CE2       60.3940   45.9530   -3.1900 C.ar   30  PHE30      -0.0003
     91  CZ        61.0400   44.7850   -3.5350 C.ar   30  PHE30      -0.0000
     92  N         58.1270   44.8450    3.1930 N.am   31  THR31      -0.1953
     93  CA        57.6300   45.4990    4.3940 C.3    31  THR31       0.1897
     94  C         58.5760   45.2980    5.5760 C.2    31  THR31       0.2313
     95  O         58.8310   46.2300    6.3330 O.2    31  THR31      -0.2863
     96  CB        56.2240   44.9810    4.7640 C.3    31  THR31       0.1794
     97  OG1       55.3200   45.2470    3.6830 O.3    31  THR31      -0.2208
     98  CG2       55.7120   45.6680    6.0240 C.3    31  THR31       0.0378
     99  N         61.1810   48.7790    2.9230 N.3    35  LEU35      -0.1231
    100  CA        61.1190   49.3060    1.5620 C.3    35  LEU35       0.1693
    101  C         59.6870   49.7640    1.3280 C.2    35  LEU35       0.2592
    102  O         58.9040   49.0850    0.6660 O.2    35  LEU35      -0.2718
    103  CB        61.4950   48.2170    0.5560 C.3    35  LEU35       0.0284
    104  CG        62.8550   47.5550    0.7990 C.3    35  LEU35       0.0019
    105  CD1       63.1410   46.5390   -0.2980 C.3    35  LEU35       0.0001
    106  CD2       63.9410   48.6210    0.8360 C.3    35  LEU35       0.0001
    107  N         59.3580   50.9260    1.8800 N.am   36  LEU36      -0.1966
    108  CA        58.0130   51.4710    1.7840 C.3    36  LEU36       0.1713
    109  C         58.0110   52.9470    1.4220 C.2    36  LEU36       0.2458
    110  O         58.9750   53.6660    1.6840 O.2    36  LEU36      -0.2730
    111  CB        57.3050   51.3140    3.1330 C.3    36  LEU36       0.0310
    112  CG        57.2940   49.9330    3.7880 C.3    36  LEU36       0.0022
    113  CD1       56.9690   50.0580    5.2730 C.3    36  LEU36       0.0001
    114  CD2       56.2830   49.0570    3.0850 C.3    36  LEU36       0.0001
    115  N         56.9200   53.4170    0.8030 N.am   37  PRO37      -0.2727
    116  CA        56.8260   54.8280    0.4320 C.3    37  PRO37       0.1402
    117  C         56.5970   55.5940    1.7340 C.2    37  PRO37       0.2269
    118  O         55.9740   55.0750    2.6610 O.2    37  PRO37      -0.2865
    119  CB        55.6160   54.8580   -0.4950 C.3    37  PRO37       0.0296
    120  CG        54.7480   53.7650    0.0570 C.3    37  PRO37       0.0237
    121  CD        55.7490   52.6630    0.3220 C.3    37  PRO37       0.0939
    122  N         47.8180   38.8890    6.3940 N.3    66  PHE66      -0.1241
    123  CA        48.8860   39.5080    5.6210 C.3    66  PHE66       0.1605
    124  C         50.2280   39.0900    6.2080 C.2    66  PHE66       0.2264
    125  O         51.1250   38.6480    5.4880 O.2    66  PHE66      -0.2867
    126  CB        48.7820   41.0330    5.6250 C.3    66  PHE66       0.0534
    127  CG        49.9110   41.6960    4.8930 C.ar   66  PHE66      -0.0203
    128  CD1       49.9670   41.6670    3.5060 C.ar   66  PHE66      -0.0042
    129  CD2       50.9580   42.2760    5.5890 C.ar   66  PHE66      -0.0042
    130  CE1       51.0490   42.2010    2.8300 C.ar   66  PHE66      -0.0003
    131  CE2       52.0450   42.8130    4.9200 C.ar   66  PHE66      -0.0003
    132  CZ        52.0910   42.7740    3.5390 C.ar   66  PHE66      -0.0000
    133  N         54.0990   51.6620    7.9650 N.3    79  MET79      -0.1245
    134  CA        53.1640   51.8970    6.8720 C.3    79  MET79       0.1570
    135  C         52.0640   52.8660    7.3140 C.2    79  MET79       0.2261
    136  O         51.4100   53.4990    6.4870 O.2    79  MET79      -0.2867
    137  CB        52.5480   50.5670    6.4190 C.3    79  MET79       0.0387
    138  CG        52.3110   50.4670    4.9220 C.3    79  MET79       0.0595
    139  SD        51.6820   48.8480    4.3920 S.3    79  MET79      -0.1393
    140  CE        53.1810   47.9400    4.1150 C.3    79  MET79       0.0692
    141  N         45.2690   31.2230   -3.9320 N.3   102  VAL102     -0.1245
    142  CA        44.8270   32.6040   -3.7720 C.3   102  VAL102      0.1561
    143  C         44.5860   33.1350   -5.1840 C.2   102  VAL102      0.2260
    144  O         45.3870   32.9000   -6.0920 O.2   102  VAL102     -0.2867
    145  CB        45.8800   33.4640   -3.0100 C.3   102  VAL102      0.0252
    146  CG1       47.2140   33.4160   -3.7150 C.3   102  VAL102      0.0019
    147  CG2       45.3880   34.9010   -2.8850 C.3   102  VAL102      0.0019
    148  N         43.0130   36.5100   -7.7230 N.3   104  ARG104     -0.1245
    149  CA        42.6040   37.9010   -7.8650 C.3   104  ARG104      0.1563
    150  C         41.3560   38.0250   -8.7300 C.2   104  ARG104      0.2260
    151  O         41.2070   37.3130   -9.7240 O.2   104  ARG104     -0.2867
    152  CB        43.7060   38.7270   -8.5310 C.3   104  ARG104      0.0307
    153  CG        45.0210   38.7830   -7.8010 C.3   104  ARG104      0.0489
    154  CD        46.0280   39.5620   -8.6390 C.3   104  ARG104      0.2205
    155  NE        47.3190   39.6790   -7.9760 N.pl3 104  ARG104     -0.0865
    156  CZ        48.4830   39.4310   -8.5640 C.cat 104  ARG104      0.5346
    157  NH1       48.5160   39.0480   -9.8350 N.pl3 104  ARG104      0.1354
    158  NH2       49.6120   39.5660   -7.8810 N.pl3 104  ARG104      0.1354
    159  N         39.2930   39.4000   -3.7970 N.3   111  VAL111     -0.1245
    160  CA        40.2490   38.3060   -3.7810 C.3   111  VAL111      0.1561
    161  C         39.5490   37.0860   -3.2050 C.2   111  VAL111      0.2260
    162  O         38.6190   37.2160   -2.4140 O.2   111  VAL111     -0.2867
    163  CB        41.4810   38.6320   -2.8860 C.3   111  VAL111      0.0252
    164  CG1       42.3030   37.3740   -2.6430 C.3   111  VAL111      0.0019
    165  CG2       42.3470   39.6880   -3.5490 C.3   111  VAL111      0.0019
    166  N         44.0860   29.4620    1.5330 N.3   115  TYR115     -0.1241
    167  CA        45.4130   29.1120    2.0420 C.3   115  TYR115      0.1605
    168  C         45.3710   27.8620    2.9110 C.2   115  TYR115      0.2264
    169  O         46.2250   26.9790    2.7890 O.2   115  TYR115     -0.2867
    170  CB        46.0040   30.2650    2.8600 C.3   115  TYR115      0.0534
    171  CG        46.8400   31.2370    2.0610 C.ar  115  TYR115     -0.0201
    172  CD1       46.3240   32.4580    1.6460 C.ar  115  TYR115     -0.0009
    173  CD2       48.1520   30.9320    1.7220 C.ar  115  TYR115     -0.0009
    174  CE1       47.0970   33.3490    0.9180 C.ar  115  TYR115      0.0417
    175  CE2       48.9300   31.8140    0.9940 C.ar  115  TYR115      0.0417
    176  CZ        48.4000   33.0200    0.5970 C.ar  115  TYR115      0.1957
    177  OH        49.1790   33.9020   -0.1150 O.3   115  TYR115     -0.2866
    178  N         42.8200   44.6330    4.3810 N.3   324  TYR324     -0.1241
    179  CA        43.8560   43.7760    3.8370 C.3   324  TYR324      0.1605
    180  C         43.7640   43.8580    2.3180 C.2   324  TYR324      0.2264
    181  O         44.6660   44.3840    1.6640 O.2   324  TYR324     -0.2867
    182  CB        43.6700   42.3310    4.3240 C.3   324  TYR324      0.0534
    183  CG        44.7190   41.3440    3.8340 C.ar  324  TYR324     -0.0201
    184  CD1       44.7310   40.0360    4.2990 C.ar  324  TYR324     -0.0009
    185  CD2       45.6810   41.7130    2.8920 C.ar  324  TYR324     -0.0009
    186  CE1       45.6620   39.1240    3.8460 C.ar  324  TYR324      0.0417
    187  CE2       46.6170   40.8030    2.4300 C.ar  324  TYR324      0.0417
    188  CZ        46.6000   39.5090    2.9120 C.ar  324  TYR324      0.1957
    189  OH        47.5140   38.5910    2.4540 O.3   324  TYR324     -0.2866
    190  N         44.8540   46.8500    0.4280 N.3   327  LEU327     -0.1231
    191  CA        46.3040   47.0110    0.3600 C.3   327  LEU327      0.1693
    192  C         46.8590   46.2720   -0.8560 C.2   327  LEU327      0.2592
    193  O         47.7820   46.7500   -1.5210 O.2   327  LEU327     -0.2718
    194  CB        46.9610   46.4630    1.6310 C.3   327  LEU327      0.0284
    195  CG        48.4920   46.4860    1.6570 C.3   327  LEU327      0.0019
    196  CD1       48.9770   47.9270    1.6350 C.3   327  LEU327      0.0001
    197  CD2       49.0010   45.7610    2.8970 C.3   327  LEU327      0.0001
    198  N         46.2850   45.1100   -1.1550 N.am  328  THR328     -0.1953
    199  CA        46.7530   44.3190   -2.2850 C.3   328  THR328      0.1897
    200  C         46.4980   45.0020   -3.6280 C.2   328  THR328      0.2313
    201  O         47.2140   44.7570   -4.5980 O.2   328  THR328     -0.2863
    202  CB        46.1080   42.9120   -2.2910 C.3   328  THR328      0.1794
    203  OG1       44.7350   43.0040   -2.6860 O.3   328  THR328     -0.2208
    204  CG2       46.1840   42.2980   -0.9000 C.3   328  THR328      0.0378
    205  N         50.6490   50.3660   -0.1630 N.3   332  PRO332     -0.2116
    206  CA        50.8650   51.0950    1.0920 C.3   332  PRO332      0.1372
    207  C         50.2020   52.4680    1.2330 C.2   332  PRO332      0.2244
    208  O         49.7370   52.8250    2.3160 O.2   332  PRO332     -0.2868
    209  CB        52.3890   51.1750    1.1820 C.3   332  PRO332      0.0268
    210  CG        52.8130   49.8840    0.5680 C.3   332  PRO332      0.0207
    211  CD        51.9180   49.8100   -0.6640 C.3   332  PRO332      0.0892
@<TRIPOS>BOND
     1    40    39    2
     2    39    38    1
     3    29    30    1
     4    13    14    1
     5    32    31    2
     6    38    37    1
     7    38    41    1
     8    31    37   am
     9    31    30    1
    10    30    33    1
    11    41    42    1
    12   157   156    1
    13    16    15    2
    14   151   150    2
    15    14    15    1
    16    14    17    1
    17    24    23    2
    18    23    22    1
    19    15    21   am
    20    44    43    2
    21   150   149    1
    22   154   155    1
    23   154   153    1
    24    33    34    1
    25    21    22    1
    26   156   155    2
    27   156   158    1
    28   152   149    1
    29   152   153    1
    30    42    43    1
    31    17    18    1
    32    22    25    1
    33    52    46    1
    34    52    51    1
    35    43    45   am
    36    35    34    1
    37   149   148    1
    38     4     3    2
    39    18    20    1
    40    18    19    1
    41    34    36    1
    42    46    47    1
    43    51    50    1
    44     3     2    1
    45    25    26    1
    46     1     2    1
    47     2     5    1
    48   144   143    2
    49    47    50    1
    50    47    48    1
    51    26    27    1
    52    57    54    1
    53     5     6    1
    54    75    73    1
    55   143   142    1
    56    53    54    1
    57    27    28    1
    58    48    49    2
    59    54    55    1
    60     7     6   ar
    61     7     9   ar
    62     6     8   ar
    63   201   200    2
    64     9    11   ar
    65     8    10   ar
    66   141   142    1
    67   159   160    1
    68   160   161    1
    69   160   163    1
    70   142   145    1
    71    73    74    1
    72    73    72    1
    73   146   145    1
    74   200   199    1
    75    11    10   ar
    76    11    12    1
    77   165   163    1
    78    91    90   ar
    79    91    89   ar
    80    55    56    2
    81    55    58   am
    82    72    69    1
    83   161   162    2
    84    90    88   ar
    85   145   147    1
    86   163   164    1
    87   203   202    1
    88    58    59    1
    89    89    87   ar
    90   202   199    1
    91   202   204    1
    92   199   198    1
    93    88    86   ar
    94    69    68    1
    95    69    70    1
    96   193   192    2
    97    87    86   ar
    98    59    62    1
    99    59    60    1
   100   198   192   am
   101    86    85    1
   102    70    76   am
   103    70    71    2
   104   192   191    1
   105    76    77    1
   106    62    63    1
   107   211   205    1
   108   211   210    1
   109    60    61    2
   110   119   120    1
   111   119   116    1
   112   105   104    1
   113   205   206    1
   114   177   176    1
   115    80    77    1
   116    77    78    1
   117   120   121    1
   118    85    82    1
   119   121   115    1
   120   191   190    1
   121   191   194    1
   122   116   115    1
   123   116   117    1
   124   103   104    1
   125   103   100    1
   126   210   209    1
   127   176   174   ar
   128   176   175   ar
   129   102   101    2
   130    63    64   ar
   131    63    65   ar
   132   104   106    1
   133   115   109   am
   134   174   172   ar
   135   175   173   ar
   136   206   209    1
   137   206   207    1
   138   207   208    2
   139   101   100    1
   140   101   107   am
   141    82    81    1
   142    82    83    1
   143    78    79    2
   144   109   110    2
   145   109   108    1
   146    64    66   ar
   147   166   167    1
   148   100    99    1
   149    65    67   ar
   150   194   195    1
   151   196   195    1
   152   172   171   ar
   153   195   197    1
   154   181   180    2
   155   173   171   ar
   156   117   118    2
   157   108   107    1
   158   108   111    1
   159   167   170    1
   160   167   168    1
   161   171   170    1
   162   180   179    1
   163   187   185   ar
   164   187   188   ar
   165   189   188    1
   166    83    84    2
   167    83    92   am
   168    66    67   ar
   169   169   168    2
   170   130   128   ar
   171   130   132   ar
   172   185   183   ar
   173   188   186   ar
   174   114   112    1
   175   111   112    1
   176    92    93    1
   177   128   127   ar
   178   132   131   ar
   179    97    96    1
   180   112   113    1
   181   183   184   ar
   182   183   182    1
   183   179   182    1
   184   179   178    1
   185   186   184   ar
   186   140   139    1
   187   139   138    1
   188    93    96    1
   189    93    94    1
   190    96    98    1
   191   127   129   ar
   192   127   126    1
   193   131   129   ar
   194   138   137    1
   195   125   124    2
   196    94    95    2
   197   123   126    1
   198   123   124    1
   199   123   122    1
   200   137   134    1
   201   136   135    2
   202   134   135    1
   203   134   133    1
