@<TRIPOS>MOLECULE
tmp/2fpzD00.pdb
 114 111 0 0 0
SMALL
GASTEIGER

@<TRIPOS>ATOM
      1  N         28.0390   14.8690   65.5200 N.3    44  HIS44      -0.1241
      2  CA        28.0420   14.5440   66.9430 C.3    44  HIS44       0.1621
      3  C         28.4630   13.1120   67.2460 C.2    44  HIS44       0.2264
      4  O         28.7770   12.7850   68.3930 O.2    44  HIS44      -0.2867
      5  CB        26.6870   14.8820   67.6090 C.3    44  HIS44       0.0745
      6  CG        25.6330   13.8290   67.4480 C.ar   44  HIS44       0.0817
      7  ND1       24.6010   13.9440   66.5470 N.ar   44  HIS44      -0.2268
      8  CD2       25.4410   12.6550   68.0990 C.ar   44  HIS44       0.1154
      9  CE1       23.8110   12.8850   66.6490 C.ar   44  HIS44       0.1986
     10  NE2       24.2980   12.0900   67.5830 N.ar   44  HIS44      -0.2212
     11  N          9.5590    7.0290   64.7350 N.3   188  ASP188     -0.1225
     12  CA        10.6530    7.9690   64.9650 C.3   188  ASP188      0.1805
     13  C         12.0210    7.2880   65.0130 C.2   188  ASP188      0.2598
     14  O         12.1300    6.0610   65.0330 O.2   188  ASP188     -0.2718
     15  CB        10.4020    8.6960   66.2940 C.3   188  ASP188      0.1424
     16  CG        11.2400    9.9580   66.4600 C.2   188  ASP188      0.3668
     17  OD1       12.0110   10.3230   65.5450 O.co2 188  ASP188     -0.2456
     18  OD2       11.1080   10.5880   67.5240 O.co2 188  ASP188     -0.2456
     19  N         13.0640    8.1120   65.0150 N.am  189  SER189     -0.1938
     20  CA        14.4340    7.6400   65.1210 C.3   189  SER189      0.2055
     21  C         14.7190    7.7130   66.6170 C.2   189  SER189      0.2643
     22  O         13.9250    8.2820   67.3690 O.2   189  SER189     -0.2714
     23  CB        15.3760    8.5870   64.3830 C.3   189  SER189      0.2130
     24  OG        15.2270    9.9080   64.8760 O.3   189  SER189     -0.2179
     25  N         15.8330    7.1420   67.0590 N.am  190  CYS190     -0.1953
     26  CA        16.1710    7.1960   68.4770 C.3   190  CYS190      0.1843
     27  C         17.6890    7.0760   68.6380 C.2   190  CYS190      0.2625
     28  O         18.4060    6.9310   67.6460 O.2   190  CYS190     -0.2714
     29  CB        15.4360    6.0820   69.2250 C.3   190  CYS190      0.0997
     30  SG        15.2280    6.3710   71.0170 S.3   190  CYS190     -0.0797
     31  N         18.1850    7.1700   69.8730 N.am  191  GLN191     -0.1977
     32  CA        19.6210    7.0580   70.1140 C.3   191  GLN191      0.1601
     33  C         20.1460    5.8050   69.4250 C.2   191  GLN191      0.2287
     34  O         19.5370    4.7420   69.4990 O.2   191  GLN191     -0.2864
     35  CB        19.9320    6.9730   71.6180 C.3   191  GLN191      0.0394
     36  CG        20.0000    8.3170   72.3560 C.3   191  GLN191      0.0908
     37  CD        18.6360    8.9230   72.6570 C.2   191  GLN191      0.2608
     38  OE1       18.5430   10.0690   73.1090 O.2   191  GLN191     -0.2717
     39  NE2       17.5740    8.1600   72.4170 N.am  191  GLN191     -0.0878
     40  N         21.4970    7.8720   65.1560 N.3   194  SER194     -0.1217
     41  CA        22.2040    9.0950   64.7950 C.3   194  SER194      0.1889
     42  C         23.2240    8.8540   63.6960 C.2   194  SER194      0.2288
     43  O         23.9370    7.8430   63.7050 O.2   194  SER194     -0.2866
     44  CB        22.9250    9.6780   66.0140 C.3   194  SER194      0.2089
     45  OG        22.0160    9.9730   67.0610 O.3   194  SER194     -0.2183
     46  N         20.0760   11.5990   60.6580 N.3   212  VAL212     -0.1231
     47  CA        19.5120   11.5830   62.0130 C.3   212  VAL212      0.1692
     48  C         20.4130   12.4140   62.9190 C.2   212  VAL212      0.2593
     49  O         21.5990   12.1150   63.0550 O.2   212  VAL212     -0.2718
     50  CB        19.4100   10.1510   62.5590 C.3   212  VAL212      0.0266
     51  CG1       18.8880   10.1890   64.0010 C.3   212  VAL212      0.0020
     52  CG2       18.4740    9.3200   61.6730 C.3   212  VAL212      0.0020
     53  N         19.8460   13.4460   63.5450 N.am  213  SER213     -0.1938
     54  CA        20.6390   14.3540   64.3750 C.3   213  SER213      0.2055
     55  C         20.3200   14.3970   65.8670 C.2   213  SER213      0.2643
     56  O         21.1690   14.0500   66.6940 O.2   213  SER213     -0.2714
     57  CB        20.5500   15.7740   63.7960 C.3   213  SER213      0.2130
     58  OG        21.3400   16.7000   64.5320 O.3   213  SER213     -0.2179
     59  N         19.1130   14.8330   66.2190 N.am  214  TRP214     -0.1959
     60  CA        18.7380   14.9110   67.6250 C.3   214  TRP214      0.1771
     61  C         17.2270   14.9970   67.8300 C.2   214  TRP214      0.2620
     62  O         16.4510   14.7620   66.9080 O.2   214  TRP214     -0.2715
     63  CB        19.4130   16.1210   68.2850 C.3   214  TRP214      0.0590
     64  CG        18.9740   17.4590   67.7340 C.ar  214  TRP214      0.0006
     65  CD1       19.2800   17.9870   66.5110 C.ar  214  TRP214      0.0946
     66  CD2       18.1530   18.4330   68.3970 C.ar  214  TRP214      0.0152
     67  NE1       18.6990   19.2300   66.3700 N.ar  214  TRP214     -0.2442
     68  CE2       18.0030   19.5270   67.5120 C.ar  214  TRP214      0.0810
     69  CE3       17.5320   18.4890   69.6520 C.ar  214  TRP214      0.0012
     70  CZ2       17.2530   20.6660   67.8440 C.ar  214  TRP214      0.0191
     71  CZ3       16.7860   19.6220   69.9820 C.ar  214  TRP214      0.0001
     72  CH2       16.6560   20.6940   69.0780 C.ar  214  TRP214      0.0015
     73  N         16.8240   15.3340   69.0510 N.am  215  GLY215     -0.1954
     74  CA        15.4120   15.4490   69.3740 C.3   215  GLY215      0.1869
     75  C         15.2280   15.2570   70.8650 C.2   215  GLY215      0.2309
     76  O         16.1240   14.7490   71.5300 O.2   215  GLY215     -0.2863
     77  N         13.9150   13.1880   73.5170 N.3   217  GLY217     -0.1210
     78  CA        13.3190   11.8950   73.7760 C.3   217  GLY217      0.1956
     79  C         13.0030   11.3070   72.4170 C.2   217  GLY217      0.2612
     80  O         13.3530   11.9050   71.3990 O.2   217  GLY217     -0.2717
     81  N         12.3470   10.1530   72.3910 N.am  218  CYS218     -0.1956
     82  CA        12.0110    9.4970   71.1370 C.3   218  CYS218      0.1843
     83  C         10.5080    9.2680   71.0470 C.2   218  CYS218      0.2625
     84  O          9.9150    8.6730   71.9420 O.2   218  CYS218     -0.2714
     85  CB        12.7490    8.1550   71.0360 C.3   218  CYS218      0.0997
     86  SG        14.5640    8.2950   71.1370 S.3   218  CYS218     -0.0797
     87  N          9.9010    9.7530   69.9680 N.am  219  ALA219     -0.1977
     88  CA         8.4700    9.5990   69.7500 C.3   219  ALA219      0.1597
     89  C          7.6380   10.2270   70.8630 C.2   219  ALA219      0.2287
     90  O          6.5480    9.7470   71.1750 O.2   219  ALA219     -0.2864
     91  CB         8.1210    8.1190   69.6010 C.3   219  ALA219      0.0319
     92  N          7.2220   16.6180   70.0220 N.3   223  ARG223     -0.1245
     93  CA         8.6770   16.6040   69.8970 C.3   223  ARG223      0.1563
     94  C          9.1760   15.6650   68.7860 C.2   223  ARG223      0.2260
     95  O          9.7910   14.6290   69.0450 O.2   223  ARG223     -0.2867
     96  CB         9.3110   16.2110   71.2360 C.3   223  ARG223      0.0307
     97  CG         8.9710   17.1350   72.4140 C.3   223  ARG223      0.0489
     98  CD         9.6460   18.5060   72.3020 C.3   223  ARG223      0.2205
     99  NE         9.4800   19.2960   73.5220 N.pl3 223  ARG223     -0.0865
    100  CZ         8.4440   20.0920   73.7810 C.cat 223  ARG223      0.5346
    101  NH1        7.4640   20.2220   72.8980 N.pl3 223  ARG223      0.1354
    102  NH2        8.3850   20.7550   74.9310 N.pl3 223  ARG223      0.1354
    103  N         11.2960   14.0310   65.6000 N.3   225  GLY225     -0.1210
    104  CA        12.7230   13.7840   65.4630 C.3   225  GLY225      0.1956
    105  C         13.3320   14.8460   64.5640 C.2   225  GLY225      0.2611
    106  O         12.6890   15.3160   63.6300 O.2   225  GLY225     -0.2717
    107  N         14.5700   15.2300   64.8440 N.am  226  ILE226     -0.1979
    108  CA        15.2370   16.2550   64.0620 C.3   226  ILE226      0.1595
    109  C         16.4360   15.7250   63.2810 C.2   226  ILE226      0.2287
    110  O         17.2680   14.9890   63.8150 O.2   226  ILE226     -0.2864
    111  CB        15.6610   17.4170   64.9670 C.3   226  ILE226      0.0276
    112  CG1       14.4190   17.9310   65.7130 C.3   226  ILE226      0.0022
    113  CG2       16.2870   18.5280   64.1350 C.3   226  ILE226      0.0022
    114  CD1       14.6890   19.0390   66.7080 C.3   226  ILE226      0.0001
@<TRIPOS>BOND
     1    46    47    1
     2    52    50    1
     3    47    50    1
     4    47    48    1
     5    50    51    1
     6    48    49    2
     7    48    53   am
     8   109   110    2
     9   109   108    1
    10    53    54    1
    11   106   105    2
    12    42    43    2
    13    42    41    1
    14    57    54    1
    15    57    58    1
    16   108   107    1
    17   108   111    1
    18   113   111    1
    19    54    55    1
    20    23    24    1
    21    23    20    1
    22   105   107   am
    23   105   104    1
    24    11    12    1
    25    41    40    1
    26    41    44    1
    27    12    13    1
    28    12    15    1
    29   111   112    1
    30    13    19   am
    31    13    14    2
    32    19    20    1
    33    20    21    1
    34   104   103    1
    35     1     2    1
    36    17    16   ar
    37   112   114    1
    38    55    59   am
    39    55    56    2
    40    44    45    1
    41    59    60    1
    42    15    16    1
    43    67    65   ar
    44    67    68   ar
    45    16    18   ar
    46    65    64   ar
    47     7     9   ar
    48     7     6   ar
    49    21    25   am
    50    21    22    2
    51     9    10   ar
    52    62    61    2
    53     2     3    1
    54     2     5    1
    55    25    26    1
    56     3     4    2
    57     6     5    1
    58     6     8   ar
    59    68    70   ar
    60    68    66   ar
    61    10     8   ar
    62    60    61    1
    63    60    63    1
    64    28    27    2
    65    64    63    1
    66    64    66   ar
    67    61    73   am
    68    70    72   ar
    69    66    69   ar
    70    26    27    1
    71    26    29    1
    72    27    31   am
    73    94    95    2
    74    94    93    1
    75    73    74    1
    76    72    71   ar
    77    29    30    1
    78    74    75    1
    79    33    34    2
    80    33    32    1
    81    91    88    1
    82    69    71   ar
    83    88    87    1
    84    88    89    1
    85    31    32    1
    86    93    92    1
    87    93    96    1
    88    87    83   am
    89    32    35    1
    90    89    90    2
    91    75    76    2
    92    30    86    1
    93    85    86    1
    94    85    82    1
    95    83    82    1
    96    83    84    2
    97    82    81    1
    98    96    97    1
    99    80    79    2
   100    35    36    1
   101    98    97    1
   102    98    99    1
   103    36    37    1
   104    81    79   am
   105    39    37   am
   106    79    78    1
   107    37    38    2
   108   101   100    1
   109    77    78    1
   110    99   100    2
   111   100   102    1
