@<TRIPOS>MOLECULE
tmp/2fq6B00.pdb
 174 168 0 0 0
SMALL
GASTEIGER

@<TRIPOS>ATOM
      1  N         -1.5870   45.9790   32.5740 N.3    82  CYS82      -0.1221
      2  CA        -2.5040   45.8900   31.4350 C.3    82  CYS82       0.1808
      3  C         -2.1600   47.0130   30.4460 C.2    82  CYS82       0.2602
      4  O         -1.2900   47.9110   30.7190 O.2    82  CYS82      -0.2717
      5  CB        -3.9840   45.9650   31.8720 C.3    82  CYS82       0.0970
      6  SG        -4.4110   47.5820   32.5670 S.3    82  CYS82      -0.0800
      7  N         -2.7820   46.9380   29.2840 N.am   83  GLY83      -0.1942
      8  CA        -2.6340   47.9320   28.2240 C.3    83  GLY83       0.2014
      9  C         -2.9430   49.3250   28.7480 C.2    83  GLY83       0.2638
     10  O         -2.2250   50.2610   28.4840 O.2    83  GLY83      -0.2714
     11  N         -4.0970   49.4900   29.3970 N.am   84  ALA84      -0.1977
     12  CA        -4.4730   50.8010   29.9330 C.3    84  ALA84       0.1597
     13  C         -3.4760   51.4020   30.9100 C.2    84  ALA84       0.2287
     14  O         -3.2430   52.6270   30.8680 O.2    84  ALA84      -0.2864
     15  CB        -5.8640   50.7020   30.5990 C.3    84  ALA84       0.0319
     16  N         -0.5840   52.6420   28.7730 N.3    87  VAL87      -0.1245
     17  CA        -0.9370   53.9580   28.1930 C.3    87  VAL87       0.1561
     18  C         -0.8560   55.1280   29.1890 C.2    87  VAL87       0.2260
     19  O         -0.1200   56.0990   28.9330 O.2    87  VAL87      -0.2867
     20  CB        -2.3240   53.9940   27.5070 C.3    87  VAL87       0.0252
     21  CG1       -2.6160   55.4420   27.0320 C.3    87  VAL87       0.0019
     22  CG2       -2.3780   53.0440   26.2830 C.3    87  VAL87       0.0019
     23  N         -8.3030   54.7960   21.7070 N.3   108  TYR108     -0.1227
     24  CA        -9.1060   53.9900   22.6270 C.3   108  TYR108      0.1736
     25  C         -9.6980   54.8730   23.7390 C.2   108  TYR108      0.2595
     26  O         -8.9940   55.7360   24.2690 O.2   108  TYR108     -0.2718
     27  CB        -8.1960   52.8820   23.1570 C.3   108  TYR108      0.0548
     28  CG        -8.7680   51.9190   24.1630 C.ar  108  TYR108     -0.0200
     29  CD1       -9.9330   51.1820   23.8880 C.ar  108  TYR108     -0.0009
     30  CD2       -8.1350   51.7560   25.3910 C.ar  108  TYR108     -0.0009
     31  CE1      -10.4190   50.2970   24.8290 C.ar  108  TYR108      0.0417
     32  CE2       -8.5650   50.8890   26.2970 C.ar  108  TYR108      0.0417
     33  CZ        -9.7280   50.1690   26.0340 C.ar  108  TYR108      0.1957
     34  OH       -10.1830   49.2940   26.9950 O.3   108  TYR108     -0.2866
     35  N        -10.9820   54.6940   24.0620 N.am  109  GLU109     -0.1966
     36  CA       -11.6810   55.6560   24.9250 C.3   109  GLU109      0.1718
     37  C        -10.9800   55.8890   26.3010 C.2   109  GLU109      0.2458
     38  O        -10.8170   57.0530   26.7300 O.2   109  GLU109     -0.2730
     39  CB       -13.2020   55.3570   25.0450 C.3   109  GLU109      0.0428
     40  CG       -13.9420   56.3400   25.9330 C.3   109  GLU109      0.1163
     41  CD       -15.4440   56.0030   25.9920 C.2   109  GLU109      0.3649
     42  OE1      -15.8070   54.9530   25.4390 O.co2 109  GLU109     -0.2457
     43  OE2      -16.2010   56.7860   26.5790 O.co2 109  GLU109     -0.2457
     44  N        -10.5520   54.8050   26.9910 N.am  110  PRO110     -0.2727
     45  CA        -9.8530   55.0070   28.2800 C.3   110  PRO110      0.1402
     46  C         -8.5680   55.8110   28.1530 C.2   110  PRO110      0.2269
     47  O         -8.1770   56.4950   29.1170 O.2   110  PRO110     -0.2865
     48  CB        -9.5770   53.5940   28.7620 C.3   110  PRO110      0.0296
     49  CG       -10.6640   52.7750   28.0860 C.3   110  PRO110      0.0237
     50  CD       -10.8130   53.3750   26.7260 C.3   110  PRO110      0.0939
     51  N         -9.9560   59.3450   28.0820 N.3   113  ASP113     -0.1239
     52  CA       -10.4330   59.6550   29.4390 C.3   113  ASP113      0.1674
     53  C         -9.3160   59.8460   30.4230 C.2   113  ASP113      0.2266
     54  O         -9.4650   60.6530   31.3240 O.2   113  ASP113     -0.2867
     55  CB       -11.3570   58.5790   30.0250 C.3   113  ASP113      0.1410
     56  CG       -12.6640   58.4720   29.3110 C.2   113  ASP113      0.3668
     57  OD1      -13.0150   59.3950   28.5110 O.co2 113  ASP113     -0.2456
     58  OD2      -13.3310   57.4470   29.5700 O.co2 113  ASP113     -0.2456
     59  N         -2.6120   56.2870   17.2820 N.3   151  GLU151     -0.1245
     60  CA        -3.1310   54.9020   17.3170 C.3   151  GLU151      0.1567
     61  C         -3.5610   54.5030   15.9120 C.2   151  GLU151      0.2260
     62  O         -4.4530   55.1170   15.3530 O.2   151  GLU151     -0.2867
     63  CB        -4.3020   54.7660   18.2950 C.3   151  GLU151      0.0388
     64  CG        -4.8630   53.3520   18.3710 C.3   151  GLU151      0.1160
     65  CD        -5.8850   53.2160   19.4710 C.2   151  GLU151      0.3649
     66  OE1       -5.7900   54.0230   20.4530 O.co2 151  GLU151     -0.2457
     67  OE2       -6.7740   52.3120   19.3520 O.co2 151  GLU151     -0.2457
     68  N         -9.1150   52.9400   17.0800 N.3   155  SER155     -0.1217
     69  CA       -10.0110   52.0480   17.8080 C.3   155  SER155      0.1889
     70  C        -11.3420   52.1210   17.1260 C.2   155  SER155      0.2288
     71  O        -11.7680   53.2130   16.7450 O.2   155  SER155     -0.2866
     72  CB       -10.2110   52.4890   19.2680 C.3   155  SER155      0.2089
     73  OG        -9.1410   52.0130   20.0920 O.3   155  SER155     -0.2183
     74  N         -0.0650   53.6300   20.2610 N.3   182  ASP182     -0.1239
     75  CA        -0.6810   52.3740   20.6710 C.3   182  ASP182      0.1674
     76  C         -0.7080   51.4410   19.4580 C.2   182  ASP182      0.2266
     77  O         -1.5880   51.5420   18.5550 O.2   182  ASP182     -0.2867
     78  CB        -2.1090   52.5970   21.1750 C.3   182  ASP182      0.1410
     79  CG        -2.7270   51.3160   21.7830 C.2   182  ASP182      0.3668
     80  OD1       -2.3790   50.1730   21.3490 O.co2 182  ASP182     -0.2456
     81  OD2       -3.5770   51.4720   22.6930 O.co2 182  ASP182     -0.2456
     82  N         -1.1760   48.1250   19.2320 N.3   184  THR184     -0.1203
     83  CA        -1.7390   46.8260   19.6550 C.3   184  THR184      0.1994
     84  C         -2.3460   46.0290   18.4660 C.2   184  THR184      0.2617
     85  O         -2.1810   44.8080   18.3560 O.2   184  THR184     -0.2717
     86  CB        -2.8330   46.9950   20.7880 C.3   184  THR184      0.1784
     87  OG1       -2.3130   47.7300   21.9190 O.3   184  THR184     -0.2211
     88  CG2       -3.2780   45.6170   21.2800 C.3   184  THR184      0.0376
     89  N         -3.0600   46.7150   17.5710 N.am  185  TRP185     -0.1975
     90  CA        -3.6150   46.0540   16.3830 C.3   185  TRP185      0.1640
     91  C         -2.5860   45.2550   15.5620 C.2   185  TRP185      0.2290
     92  O         -2.8680   44.1370   15.1430 O.2   185  TRP185     -0.2864
     93  CB        -4.2950   47.0680   15.4860 C.3   185  TRP185      0.0576
     94  CG        -5.1430   46.4630   14.3500 C.ar  185  TRP185      0.0006
     95  CD1       -6.4690   46.0780   14.4070 C.ar  185  TRP185      0.0946
     96  CD2       -4.7030   46.1850   13.0240 C.ar  185  TRP185      0.0152
     97  NE1       -6.8630   45.5920   13.1870 N.ar  185  TRP185     -0.2442
     98  CE2       -5.8150   45.6660   12.3090 C.ar  185  TRP185      0.0810
     99  CE3       -3.4810   46.3480   12.3550 C.ar  185  TRP185      0.0012
    100  CZ2       -5.7320   45.2890   10.9530 C.ar  185  TRP185      0.0191
    101  CZ3       -3.3930   45.9860   11.0170 C.ar  185  TRP185      0.0001
    102  CH2       -4.5160   45.4710   10.3230 C.ar  185  TRP185      0.0015
    103  N         -1.2810   46.7740   24.4230 N.3   204  ALA204     -0.1245
    104  CA        -1.9880   45.8870   25.2990 C.3   204  ALA204      0.1562
    105  C         -1.5530   44.4620   24.8830 C.2   204  ALA204      0.2260
    106  O         -2.0490   43.8950   23.9110 O.2   204  ALA204     -0.2867
    107  CB        -3.5100   46.0860   25.1650 C.3   204  ALA204      0.0290
    108  N         -2.1410   41.9310   26.3280 N.3   206  THR206     -0.1203
    109  CA        -3.4340   41.2580   26.5290 C.3   206  THR206      0.1994
    110  C         -4.1120   40.7060   25.2630 C.2   206  THR206      0.2617
    111  O         -4.8280   39.6930   25.3140 O.2   206  THR206     -0.2717
    112  CB        -4.3960   42.3050   27.1460 C.3   206  THR206      0.1784
    113  OG1       -3.7650   42.8940   28.2850 O.3   206  THR206     -0.2211
    114  CG2       -5.6920   41.7020   27.5690 C.3   206  THR206      0.0376
    115  N         -3.9460   41.4270   24.1580 N.am  207  LYS207     -0.1979
    116  CA        -4.5220   41.0750   22.8590 C.3   207  LYS207      0.1596
    117  C         -3.6750   39.9950   22.1800 C.2   207  LYS207      0.2287
    118  O         -3.5080   38.9010   22.7290 O.2   207  LYS207     -0.2864
    119  CB        -4.6020   42.3360   21.9820 C.3   207  LYS207      0.0298
    120  CG        -5.7980   43.2590   22.2560 C.3   207  LYS207      0.0038
    121  CD        -5.9630   43.5230   23.7640 C.3   207  LYS207      0.0206
    122  CE        -7.2580   44.3110   23.9970 C.3   207  LYS207      0.1093
    123  NZ        -7.7090   44.2020   25.4240 N.3   207  LYS207     -0.1314
    124  N         -3.6580   39.6240   31.3160 N.3   216  MET216     -0.1245
    125  CA        -3.5560   41.0580   31.0390 C.3   216  MET216      0.1570
    126  C         -2.1370   41.5790   31.3550 C.2   216  MET216      0.2261
    127  O         -1.5350   41.1750   32.3420 O.2   216  MET216     -0.2867
    128  CB        -4.6560   41.8120   31.8250 C.3   216  MET216      0.0387
    129  CG        -5.9980   41.1720   31.6130 C.3   216  MET216      0.0595
    130  SD        -7.4400   42.1580   32.0730 S.3   216  MET216     -0.1393
    131  CE        -7.1370   43.7130   31.2080 C.3   216  MET216      0.0692
    132  N        -15.6970   42.5600   25.3490 N.3   335  TYR335     -0.1227
    133  CA       -14.6390   43.5380   25.1090 C.3   335  TYR335      0.1736
    134  C        -13.2900   42.8180   25.0020 C.2   335  TYR335      0.2596
    135  O        -13.2110   41.6080   25.1890 O.2   335  TYR335     -0.2718
    136  CB       -14.6580   44.5750   26.2220 C.3   335  TYR335      0.0548
    137  CG       -15.9340   45.4070   26.2150 C.ar  335  TYR335     -0.0200
    138  CD1      -16.1710   46.3240   25.1980 C.ar  335  TYR335     -0.0009
    139  CD2      -16.8930   45.2620   27.2180 C.ar  335  TYR335     -0.0009
    140  CE1      -17.3090   47.0920   25.1840 C.ar  335  TYR335      0.0417
    141  CE2      -18.0520   46.0170   27.2170 C.ar  335  TYR335      0.0417
    142  CZ       -18.2550   46.9260   26.1900 C.ar  335  TYR335      0.1957
    143  OH       -19.3660   47.7140   26.1690 O.3   335  TYR335     -0.2866
    144  N        -12.2350   43.5490   24.6820 N.am  336  SER336     -0.1938
    145  CA       -10.9890   42.9100   24.2710 C.3   336  SER336      0.2055
    146  C        -11.2230   42.1440   22.9520 C.2   336  SER336      0.2643
    147  O        -12.3380   42.1610   22.3790 O.2   336  SER336     -0.2714
    148  CB       -10.3740   42.0160   25.3580 C.3   336  SER336      0.2130
    149  OG        -8.9620   41.8720   25.1360 O.3   336  SER336     -0.2179
    150  N        -10.1490   41.5220   22.4850 N.am  337  TRP337     -0.1973
    151  CA       -10.0240   40.9840   21.1500 C.3   337  TRP337      0.1640
    152  C         -8.5930   40.4480   21.0550 C.2   337  TRP337      0.2290
    153  O         -7.8420   40.5070   22.0290 O.2   337  TRP337     -0.2864
    154  CB       -10.3420   42.0740   20.0940 C.3   337  TRP337      0.0576
    155  CG        -9.6470   43.4280   20.3040 C.ar  337  TRP337      0.0006
    156  CD1      -10.1040   44.5070   21.0390 C.ar  337  TRP337      0.0946
    157  CD2       -8.4020   43.8440   19.7290 C.ar  337  TRP337      0.0152
    158  NE1       -9.2060   45.5460   20.9660 N.ar  337  TRP337     -0.2442
    159  CE2       -8.1620   45.1750   20.1540 C.ar  337  TRP337      0.0810
    160  CE3       -7.4690   43.2220   18.8810 C.ar  337  TRP337      0.0012
    161  CZ2       -7.0080   45.8940   19.7620 C.ar  337  TRP337      0.0191
    162  CZ3       -6.3330   43.9210   18.4890 C.ar  337  TRP337      0.0001
    163  CH2       -6.1120   45.2540   18.9410 C.ar  337  TRP337      0.0015
    164  N        -18.2170   46.0710   15.1580 N.3   369  ARG369     -0.1245
    165  CA       -16.7970   45.6790   15.2500 C.3   369  ARG369      0.1563
    166  C        -16.6930   44.1620   15.4000 C.2   369  ARG369      0.2260
    167  O        -17.2710   43.5680   16.3200 O.2   369  ARG369     -0.2867
    168  CB       -16.0680   46.3810   16.3900 C.3   369  ARG369      0.0307
    169  CG       -14.5450   46.3410   16.2270 C.3   369  ARG369      0.0489
    170  CD       -13.8980   46.8380   17.4920 C.3   369  ARG369      0.2205
    171  NE       -14.0280   45.9200   18.6360 N.pl3 369  ARG369     -0.0865
    172  CZ       -13.4320   46.1010   19.8160 C.cat 369  ARG369      0.5346
    173  NH1      -12.5960   47.1450   19.9980 N.pl3 369  ARG369      0.1354
    174  NH2      -13.6230   45.2150   20.7970 N.pl3 369  ARG369      0.1354
@<TRIPOS>BOND
     1   102   100   ar
     2   102   101   ar
     3   100    98   ar
     4   101    99   ar
     5    98    96   ar
     6    98    97   ar
     7    99    96   ar
     8    96    94   ar
     9    97    95   ar
    10    94    95   ar
    11    94    93    1
    12    92    91    2
    13   164   165    1
    14   165   166    1
    15   165   168    1
    16    62    61    2
    17   166   167    2
    18    93    90    1
    19    91    90    1
    20    61    60    1
    21   169   168    1
    22   169   170    1
    23    90    89    1
    24    71    70    2
    25    68    69    1
    26    70    69    1
    27    59    60    1
    28    60    63    1
    29   170   171    1
    30    89    84   am
    31    69    72    1
    32    63    64    1
    33    85    84    2
    34    64    65    1
    35    84    83    1
    36   162   160   ar
    37   162   163   ar
    38    77    76    2
    39   171   172    2
    40   160   157   ar
    41   163   161   ar
    42    82    83    1
    43    72    73    1
    44    67    65   ar
    45    76    75    1
    46    65    66   ar
    47    83    86    1
    48   157   159   ar
    49   157   155   ar
    50   161   159   ar
    51   172   173    1
    52   172   174    1
    53   154   155    1
    54   154   151    1
    55   159   158   ar
    56    74    75    1
    57   155   156   ar
    58    75    78    1
    59    86    88    1
    60    86    87    1
    61   158   156   ar
    62   152   151    1
    63   152   153    2
    64   151   150    1
    65    78    79    1
    66    80    79   ar
    67    23    24    1
    68    79    81   ar
    69   119   120    1
    70   119   116    1
    71   117   118    2
    72   117   116    1
    73   120   121    1
    74   147   146    2
    75   150   146   am
    76    24    27    1
    77    24    25    1
    78   116   115    1
    79   146   145    1
    80    27    28    1
    81    25    35   am
    82    25    26    2
    83   121   122    1
    84    29    28   ar
    85    29    31   ar
    86   106   105    2
    87   122   123    1
    88    35    36    1
    89   115   110   am
    90    28    30   ar
    91   145   144    1
    92   145   148    1
    93   103   104    1
    94   144   134   am
    95    31    33   ar
    96   105   104    1
    97    36    39    1
    98    36    37    1
    99   134   133    1
   100   134   135    2
   101    39    40    1
   102   133   132    1
   103   133   136    1
   104   149   148    1
   105   107   104    1
   106   140   138   ar
   107   140   142   ar
   108   138   137   ar
   109   110   111    2
   110   110   109    1
   111    30    32   ar
   112    42    41   ar
   113    40    41    1
   114    41    43   ar
   115    33    32   ar
   116    33    34    1
   117   143   142    1
   118   142   141   ar
   119   137   136    1
   120   137   139   ar
   121    22    20    1
   122    37    38    2
   123    37    44   am
   124   108   109    1
   125   109   112    1
   126    50    44    1
   127    50    49    1
   128    44    45    1
   129    21    20    1
   130   112   114    1
   131   112   113    1
   132   141   139   ar
   133    20    17    1
   134    51    52    1
   135    49    48    1
   136    46    45    1
   137    46    47    2
   138    17    16    1
   139    17    18    1
   140     8     9    1
   141     8     7    1
   142    45    48    1
   143    10     9    2
   144    57    56   ar
   145     9    11   am
   146    19    18    2
   147     7     3   am
   148    56    58   ar
   149    56    55    1
   150    11    12    1
   151    52    55    1
   152    52    53    1
   153    12    15    1
   154    12    13    1
   155    53    54    2
   156     3     4    2
   157     3     2    1
   158    14    13    2
   159   125   124    1
   160   125   126    1
   161   125   128    1
   162   131   130    1
   163   126   127    2
   164     2     5    1
   165     2     1    1
   166   129   128    1
   167   129   130    1
   168     5     6    1
