@<TRIPOS>MOLECULE
tmp/2fq9B00.pdb
 125 121 0 0 0
SMALL
GASTEIGER

@<TRIPOS>ATOM
      1  N         -0.0090   31.6730  104.3960 N.3    19  GLN19      -0.1245
      2  CA        -0.5310   30.4740  103.7420 C.3    19  GLN19       0.1566
      3  C         -1.7250   29.8250  104.4350 C.2    19  GLN19       0.2260
      4  O         -2.4500   29.0470  103.8200 O.2    19  GLN19      -0.2867
      5  CB         0.5820   29.4350  103.5640 C.3    19  GLN19       0.0367
      6  CG         1.0680   28.7940  104.8460 C.3    19  GLN19       0.0905
      7  CD         2.2530   27.8750  104.6110 C.2    19  GLN19       0.2608
      8  OE1        3.2980   28.3070  104.1310 O.2    19  GLN19      -0.2717
      9  NE2        2.0940   26.6020  104.9480 N.am   19  GLN19      -0.0878
     10  N         -0.8260   23.7270  102.9590 N.3    23  GLY23      -0.1225
     11  CA         0.6140   23.5250  102.8670 C.3    23  GLY23       0.1811
     12  C          1.1880   23.9830  101.5420 C.2    23  GLY23       0.2280
     13  O          1.7240   23.1800  100.7700 O.2    23  GLY23      -0.2866
     14  N          3.6800   26.2810  101.1950 N.3    25  CYS25      -0.1221
     15  CA         4.9610   26.9520  101.3940 C.3    25  CYS25       0.1808
     16  C          5.8100   26.9090  100.1290 C.2    25  CYS25       0.2601
     17  O          6.4480   27.8960   99.7680 O.2    25  CYS25      -0.2717
     18  CB         5.7350   26.3080  102.5490 C.3    25  CYS25       0.0970
     19  SG         6.2010   24.5680  102.2610 S.3    25  CYS25      -0.0800
     20  N          5.8100   25.7600   99.4600 N.am   26  TRP26      -0.1976
     21  CA         6.5910   25.5830   98.2420 C.3    26  TRP26       0.1640
     22  C          6.1810   26.5770   97.1570 C.2    26  TRP26       0.2290
     23  O          7.0240   27.0910   96.4200 O.2    26  TRP26      -0.2864
     24  CB         6.4300   24.1530   97.7190 C.3    26  TRP26       0.0576
     25  CG         5.0110   23.7660   97.4510 C.ar   26  TRP26       0.0006
     26  CD1        4.0770   23.3690   98.3650 C.ar   26  TRP26       0.0946
     27  CD2        4.3510   23.7730   96.1790 C.ar   26  TRP26       0.0152
     28  NE1        2.8730   23.1330   97.7400 N.ar   26  TRP26      -0.2442
     29  CE2        3.0130   23.3800   96.4000 C.ar   26  TRP26       0.0810
     30  CE3        4.7580   24.0910   94.8770 C.ar   26  TRP26       0.0012
     31  CZ2        2.0800   23.2780   95.3590 C.ar   26  TRP26       0.0191
     32  CZ3        3.8300   23.9920   93.8410 C.ar   26  TRP26       0.0001
     33  CH2        2.5030   23.5940   94.0920 C.ar   26  TRP26       0.0015
     34  N          4.6220   16.3500   90.1950 N.3    62  GLY62      -0.1225
     35  CA         4.9220   15.6910   91.4530 C.3    62  GLY62       0.1811
     36  C          4.4990   16.4730   92.6800 C.2    62  GLY62       0.2280
     37  O          4.9640   16.1890   93.7840 O.2    62  GLY62      -0.2866
     38  N          1.4450   18.2530   95.3010 N.3    64  LYS64      -0.1245
     39  CA         0.1700   17.9070   95.9150 C.3    64  LYS64       0.1561
     40  C         -0.6190   19.0830   96.4810 C.2    64  LYS64       0.2260
     41  O         -1.3420   18.9270   97.4610 O.2    64  LYS64      -0.2867
     42  CB         0.4080   16.8480   97.0010 C.3    64  LYS64       0.0271
     43  CG         1.0220   15.5600   96.4630 C.3    64  LYS64       0.0035
     44  CD         1.1100   14.4230   97.4730 C.3    64  LYS64       0.0206
     45  CE         2.0050   13.3140   96.9110 C.3    64  LYS64       0.1093
     46  NZ         2.0900   12.0490   97.7070 N.3    64  LYS64      -0.1314
     47  N         -1.0220   19.9480  100.1130 N.3    67  ASN67      -0.1225
     48  CA        -0.3610   18.8810  100.8420 C.3    67  ASN67       0.1785
     49  C          1.1250   18.7840  100.5120 C.2    67  ASN67       0.2598
     50  O          1.7630   17.7560  100.7490 O.2    67  ASN67      -0.2718
     51  CB        -1.0700   17.5490  100.5940 C.3    67  ASN67       0.1169
     52  CG        -2.3200   17.4000  101.4450 C.2    67  ASN67       0.2627
     53  OD1       -2.2380   17.2800  102.6720 O.2    67  ASN67      -0.2716
     54  ND2       -3.4810   17.4260  100.8050 N.am   67  ASN67      -0.0877
     55  N          1.6750   19.8650   99.9680 N.am   68  GLY68      -0.1942
     56  CA         3.0930   19.8870   99.6640 C.3    68  GLY68       0.2014
     57  C          3.4970   19.9140   98.2050 C.2    68  GLY68       0.2639
     58  O          2.7270   19.5410   97.3270 O.2    68  GLY68      -0.2714
     59  N          4.7270   20.3470   97.9540 N.am   69  GLY69      -0.1939
     60  CA         5.2220   20.4180   96.5900 C.3    69  GLY69       0.2014
     61  C          6.6920   20.7840   96.5280 C.2    69  GLY69       0.2639
     62  O          7.3330   20.9830   97.5610 O.2    69  GLY69      -0.2714
     63  N          7.2210   20.8740   95.3110 N.am   70  PHE70      -0.1959
     64  CA         8.6240   21.2160   95.0850 C.3    70  PHE70       0.1771
     65  C          8.7450   22.5880   94.4410 C.2    70  PHE70       0.2619
     66  O          7.9730   22.9230   93.5480 O.2    70  PHE70      -0.2715
     67  CB         9.2820   20.2170   94.1300 C.3    70  PHE70       0.0574
     68  CG         9.3060   18.8050   94.6310 C.ar   70  PHE70      -0.0200
     69  CD1        8.4150   17.8600   94.1330 C.ar   70  PHE70      -0.0042
     70  CD2       10.2450   18.4100   95.5770 C.ar   70  PHE70      -0.0042
     71  CE1        8.4640   16.5380   94.5670 C.ar   70  PHE70      -0.0003
     72  CE2       10.3010   17.0920   96.0190 C.ar   70  PHE70      -0.0003
     73  CZ         9.4090   16.1550   95.5120 C.ar   70  PHE70      -0.0000
     74  N          9.7250   23.3750   94.8710 N.am   71  MET71      -0.1977
     75  CA         9.9210   24.6860   94.2670 C.3    71  MET71       0.1605
     76  C         10.4740   24.5310   92.8470 C.2    71  MET71       0.2287
     77  O         10.1080   25.2890   91.9480 O.2    71  MET71      -0.2864
     78  CB        10.8840   25.5410   95.1030 C.3    71  MET71       0.0413
     79  CG        10.3120   26.0400   96.4280 C.3    71  MET71       0.0598
     80  SD        10.4420   24.8490   97.7820 S.3    71  MET71      -0.1393
     81  CE        12.1610   25.1080   98.2890 C.3    71  MET71       0.0692
     82  N         14.7460   24.9710  101.3940 N.3   137  GLY137     -0.1225
     83  CA        13.9260   24.1910  102.2960 C.3   137  GLY137      0.1811
     84  C         14.6580   24.1590  103.6250 C.2   137  GLY137      0.2280
     85  O         15.8840   24.0920  103.6510 O.2   137  GLY137     -0.2866
     86  N         14.9000   18.5920  105.6370 N.3   162  VAL162     -0.1231
     87  CA        14.0470   19.7560  105.4200 C.3   162  VAL162      0.1692
     88  C         12.6090   19.4110  105.0610 C.2   162  VAL162      0.2592
     89  O         12.3460   18.4520  104.3340 O.2   162  VAL162     -0.2718
     90  CB        14.6420   20.6800  104.3380 C.3   162  VAL162      0.0266
     91  CG1       16.0750   21.0270  104.7080 C.3   162  VAL162      0.0020
     92  CG2       14.5890   20.0130  102.9720 C.3   162  VAL162      0.0020
     93  N         11.6820   20.2190  105.5670 N.am  163  ASN163     -0.1960
     94  CA        10.2610   19.9870  105.3430 C.3   163  ASN163      0.1819
     95  C          9.4870   21.2480  104.9960 C.2   163  ASN163      0.2621
     96  O          8.3270   21.1680  104.5970 O.2   163  ASN163     -0.2715
     97  CB         9.6440   19.3910  106.6090 C.3   163  ASN163      0.1195
     98  CG         9.4890   20.4250  107.7230 C.2   163  ASN163      0.2630
     99  OD1       10.4440   21.1030  108.0920 O.2   163  ASN163     -0.2716
    100  ND2        8.2780   20.5480  108.2560 N.am  163  ASN163     -0.0877
    101  N         10.1240   22.4060  105.1420 N.am  164  HIS164     -0.1959
    102  CA         9.4430   23.6760  104.9070 C.3   164  HIS164      0.1787
    103  C         10.1400   24.5780  103.8900 C.2   164  HIS164      0.2620
    104  O         11.3080   24.9230  104.0520 O.2   164  HIS164     -0.2715
    105  CB         9.3050   24.3920  106.2570 C.3   164  HIS164      0.0785
    106  CG         8.4730   25.6340  106.2110 C.ar  164  HIS164      0.0821
    107  ND1        7.1790   25.6480  105.7380 N.ar  164  HIS164     -0.2267
    108  CD2        8.7430   26.9000  106.6070 C.ar  164  HIS164      0.1154
    109  CE1        6.6880   26.8690  105.8430 C.ar  164  HIS164      0.1986
    110  NE2        7.6160   27.6480  106.3680 N.ar  164  HIS164     -0.2212
    111  N          9.4040   24.9630  102.8480 N.am  165  GLY165     -0.1954
    112  CA         9.9580   25.8170  101.8100 C.3   165  GLY165      0.1869
    113  C          9.8440   27.2960  102.1370 C.2   165  GLY165      0.2309
    114  O          8.7600   27.7860  102.4500 O.2   165  GLY165     -0.2863
    115  N         18.7670   22.2140   99.7210 N.3   211  PHE211     -0.1241
    116  CA        18.1460   22.2260   98.4010 C.3   211  PHE211      0.1605
    117  C         17.7780   23.6220   97.9070 C.2   211  PHE211      0.2264
    118  O         16.6000   23.9680   97.8200 O.2   211  PHE211     -0.2867
    119  CB        16.8980   21.3400   98.4090 C.3   211  PHE211      0.0534
    120  CG        17.1750   19.9060   98.7800 C.ar  211  PHE211     -0.0203
    121  CD1       16.9340   19.4450  100.0700 C.ar  211  PHE211     -0.0042
    122  CD2       17.6920   19.0190   97.8390 C.ar  211  PHE211     -0.0042
    123  CE1       17.2100   18.1210  100.4180 C.ar  211  PHE211     -0.0003
    124  CE2       17.9710   17.6930   98.1810 C.ar  211  PHE211     -0.0003
    125  CZ        17.7270   17.2460   99.4700 C.ar  211  PHE211     -0.0000
@<TRIPOS>BOND
     1    34    35    1
     2    35    36    1
     3    77    76    2
     4    36    37    2
     5    76    75    1
     6    66    65    2
     7    32    33   ar
     8    32    30   ar
     9    33    31   ar
    10    67    68    1
    11    67    64    1
    12    69    71   ar
    13    69    68   ar
    14    75    74    1
    15    75    78    1
    16    65    74   am
    17    65    64    1
    18    71    73   ar
    19    68    70   ar
    20    30    27   ar
    21    64    63    1
    22    78    79    1
    23    38    39    1
    24    63    61   am
    25    31    29   ar
    26    73    72   ar
    27    70    72   ar
    28    39    40    1
    29    39    42    1
    30    27    29   ar
    31    27    25   ar
    32    29    28   ar
    33    23    22    2
    34    79    80    1
    35    43    42    1
    36    43    44    1
    37    40    41    2
    38    61    60    1
    39    61    62    2
    40    60    59    1
    41    45    44    1
    42    45    46    1
    43    22    21    1
    44    58    57    2
    45    25    24    1
    46    25    26   ar
    47    24    21    1
    48    28    26   ar
    49    80    81    1
    50   118   117    2
    51   122   124   ar
    52   122   120   ar
    53   117   116    1
    54    59    57   am
    55   124   125   ar
    56    57    56    1
    57    21    20    1
    58   116   119    1
    59   116   115    1
    60   119   120    1
    61   120   121   ar
    62    20    16   am
    63   125   123   ar
    64    56    55    1
    65    17    16    2
    66    55    49   am
    67   121   123   ar
    68    47    48    1
    69    16    15    1
    70    49    50    2
    71    49    48    1
    72    51    48    1
    73    51    52    1
    74    13    12    2
    75    54    52   am
    76    14    15    1
    77    15    18    1
    78    82    83    1
    79    52    53    2
    80    12    11    1
    81   112   113    1
    82   112   111    1
    83   113   114    2
    84    19    18    1
    85    83    84    1
    86   111   103   am
    87    11    10    1
    88    92    90    1
    89     5     2    1
    90     5     6    1
    91    84    85    2
    92     2     1    1
    93     2     3    1
    94     4     3    2
    95   103   104    2
    96   103   102    1
    97     8     7    2
    98    89    88    2
    99    90    91    1
   100    90    87    1
   101    96    95    2
   102     7     6    1
   103     7     9   am
   104   102   101    1
   105   102   105    1
   106    95   101   am
   107    95    94    1
   108    88    87    1
   109    88    93   am
   110    94    93    1
   111    94    97    1
   112    87    86    1
   113   107   109   ar
   114   107   106   ar
   115   109   110   ar
   116   106   105    1
   117   106   108   ar
   118   110   108   ar
   119    97    98    1
   120    98    99    2
   121    98   100   am
