@<TRIPOS>MOLECULE
tmp/2fqiA02.pdb
 204 195 0 0 0
SMALL
GASTEIGER

@<TRIPOS>ATOM
      1  N         50.8930   54.2290   -7.3040 N.3     5  TYR5       -0.1241
      2  CA        50.7890   52.8510   -6.8440 C.3     5  TYR5        0.1605
      3  C         49.5540   52.1630   -7.4050 C.2     5  TYR5        0.2264
      4  O         49.6270   51.0410   -7.9050 O.2     5  TYR5       -0.2867
      5  CB        50.7630   52.7990   -5.3120 C.3     5  TYR5        0.0534
      6  CG        52.1390   52.7630   -4.6840 C.ar    5  TYR5       -0.0201
      7  CD1       52.9650   53.8800   -4.6940 C.ar    5  TYR5       -0.0009
      8  CD2       52.6250   51.5940   -4.1120 C.ar    5  TYR5       -0.0009
      9  CE1       54.2410   53.8310   -4.1500 C.ar    5  TYR5        0.0417
     10  CE2       53.8920   51.5340   -3.5700 C.ar    5  TYR5        0.0417
     11  CZ        54.6970   52.6520   -3.5930 C.ar    5  TYR5        0.1957
     12  OH        55.9630   52.5780   -3.0650 O.3     5  TYR5       -0.2866
     13  N         52.3850   51.0230  -10.3620 N.3     9  LEU9       -0.1231
     14  CA        53.1920   50.0670   -9.6160 C.3     9  LEU9        0.1693
     15  C         52.4790   48.7460   -9.3320 C.2     9  LEU9        0.2591
     16  O         52.9100   47.6920   -9.8000 O.2     9  LEU9       -0.2718
     17  CB        53.6890   50.7020   -8.3110 C.3     9  LEU9        0.0284
     18  CG        54.8580   49.9920   -7.6200 C.3     9  LEU9        0.0019
     19  CD1       55.6740   51.0070   -6.8320 C.3     9  LEU9        0.0001
     20  CD2       54.3400   48.8780   -6.7200 C.3     9  LEU9        0.0001
     21  N         51.3850   48.7960   -8.5780 N.am   10  MET10      -0.1979
     22  CA        50.6550   47.5780   -8.2440 C.3    10  MET10       0.1605
     23  C         50.1920   46.7970   -9.4750 C.2    10  MET10       0.2287
     24  O         50.4110   45.5880   -9.5680 O.2    10  MET10      -0.2864
     25  CB        49.4690   47.9090   -7.3340 C.3    10  MET10       0.0413
     26  CG        49.8880   48.4730   -5.9780 C.3    10  MET10       0.0598
     27  SD        51.0440   47.3840   -5.0920 S.3    10  MET10      -0.1393
     28  CE        49.9320   46.0900   -4.5470 C.3    10  MET10       0.0692
     29  N         53.2180   45.1050  -11.0150 N.3    13  LEU13      -0.1231
     30  CA        53.7070   44.0330  -10.1620 C.3    13  LEU13       0.1693
     31  C         52.7980   42.8080  -10.2550 C.2    13  LEU13       0.2591
     32  O         53.2740   41.6760  -10.3310 O.2    13  LEU13      -0.2718
     33  CB        53.7810   44.5230   -8.7150 C.3    13  LEU13       0.0284
     34  CG        54.6430   43.7140   -7.7490 C.3    13  LEU13       0.0019
     35  CD1       56.0630   43.5900   -8.2950 C.3    13  LEU13       0.0001
     36  CD2       54.6600   44.4050   -6.4050 C.3    13  LEU13       0.0001
     37  N         51.4900   43.0400  -10.2560 N.am   14  GLN14      -0.1979
     38  CA        50.5290   41.9450  -10.3310 C.3    14  GLN14       0.1601
     39  C         50.5180   41.2770  -11.7040 C.2    14  GLN14       0.2287
     40  O         50.0300   40.1570  -11.8540 O.2    14  GLN14      -0.2864
     41  CB        49.1260   42.4470   -9.9680 C.3    14  GLN14       0.0394
     42  CG        49.0260   42.9530   -8.5310 C.3    14  GLN14       0.0908
     43  CD        47.5980   43.1850   -8.0760 C.2    14  GLN14       0.2608
     44  OE1       46.8490   43.9340   -8.7000 O.2    14  GLN14      -0.2717
     45  NE2       47.2150   42.5420   -6.9770 N.am   14  GLN14      -0.0878
     46  N         49.6010   35.7900   -7.4640 N.3    19  PRO19      -0.2116
     47  CA        49.1910   36.3100   -6.1560 C.3    19  PRO19       0.1372
     48  C         49.9850   35.8710   -4.9280 C.2    19  PRO19       0.2244
     49  O         50.3280   36.7050   -4.0930 O.2    19  PRO19      -0.2868
     50  CB        47.7060   35.9380   -6.0810 C.3    19  PRO19       0.0268
     51  CG        47.5810   34.7760   -7.0170 C.3    19  PRO19       0.0207
     52  CD        48.4620   35.1700   -8.1610 C.3    19  PRO19       0.0892
     53  N         53.4140   37.4120   -5.0700 N.3    22  ALA22      -0.1231
     54  CA        53.2810   38.8380   -4.8180 C.3    22  ALA22       0.1694
     55  C         53.1580   39.0750   -3.3140 C.2    22  ALA22       0.2592
     56  O         53.7330   40.0190   -2.7740 O.2    22  ALA22      -0.2718
     57  CB        52.0560   39.3830   -5.5390 C.3    22  ALA22       0.0304
     58  N         52.4020   38.2170   -2.6370 N.am   23  HIS23      -0.1976
     59  CA        52.2380   38.3590   -1.1980 C.3    23  HIS23       0.1656
     60  C         53.5690   38.1540   -0.4780 C.2    23  HIS23       0.2291
     61  O         53.9270   38.9230    0.4180 O.2    23  HIS23      -0.2864
     62  CB        51.2130   37.3590   -0.6630 C.3    23  HIS23       0.0771
     63  CG        51.1030   37.3680    0.8290 C.ar   23  HIS23       0.0820
     64  ND1       51.4580   36.2890    1.6090 N.ar   23  HIS23      -0.2267
     65  CD2       50.7270   38.3450    1.6870 C.ar   23  HIS23       0.1154
     66  CE1       51.3070   36.6020    2.8840 C.ar   23  HIS23       0.1986
     67  NE2       50.8640   37.8440    2.9580 N.ar   23  HIS23      -0.2212
     68  N         56.5480   38.6160   -1.5870 N.3    25  LEU25      -0.1231
     69  CA        57.4000   39.7710   -1.8360 C.3    25  LEU25       0.1693
     70  C         56.9380   40.9390   -0.9740 C.2    25  LEU25       0.2591
     71  O         57.7520   41.7120   -0.4720 O.2    25  LEU25      -0.2718
     72  CB        57.3430   40.1680   -3.3110 C.3    25  LEU25       0.0284
     73  CG        58.2880   41.2990   -3.7200 C.3    25  LEU25       0.0019
     74  CD1       59.7230   40.8710   -3.4370 C.3    25  LEU25       0.0001
     75  CD2       58.1090   41.6260   -5.1980 C.3    25  LEU25       0.0001
     76  N         55.6230   41.0570   -0.8110 N.am   26  ALA26      -0.1980
     77  CA        55.0310   42.1230   -0.0110 C.3    26  ALA26       0.1597
     78  C         55.5030   42.0190    1.4310 C.2    26  ALA26       0.2287
     79  O         55.8290   43.0200    2.0670 O.2    26  ALA26      -0.2864
     80  CB        53.5180   42.0270   -0.0590 C.3    26  ALA26       0.0319
     81  N         59.3750   42.9970    1.4870 N.3    29  PHE29      -0.1227
     82  CA        59.5690   44.4370    1.3650 C.3    29  PHE29       0.1736
     83  C         59.1270   45.1850    2.6150 C.2    29  PHE29       0.2596
     84  O         59.7970   46.1180    3.0660 O.2    29  PHE29      -0.2718
     85  CB        58.8140   44.9700    0.1450 C.3    29  PHE29       0.0547
     86  CG        59.6140   44.9240   -1.1270 C.ar   29  PHE29      -0.0202
     87  CD1       60.3200   43.7870   -1.4770 C.ar   29  PHE29      -0.0042
     88  CD2       59.6640   46.0200   -1.9680 C.ar   29  PHE29      -0.0042
     89  CE1       61.0640   43.7460   -2.6440 C.ar   29  PHE29      -0.0003
     90  CE2       60.4050   45.9850   -3.1380 C.ar   29  PHE29      -0.0003
     91  CZ        61.1060   44.8460   -3.4740 C.ar   29  PHE29      -0.0000
     92  N         57.9980   44.7740    3.1770 N.am   30  THR30      -0.1953
     93  CA        57.4930   45.4250    4.3750 C.3    30  THR30       0.1897
     94  C         58.4440   45.1940    5.5480 C.2    30  THR30       0.2313
     95  O         58.7400   46.1180    6.3060 O.2    30  THR30      -0.2863
     96  CB        56.0880   44.8990    4.7350 C.3    30  THR30       0.1794
     97  OG1       55.2070   45.1150    3.6260 O.3    30  THR30      -0.2208
     98  CG2       55.5390   45.6240    5.9510 C.3    30  THR30       0.0378
     99  N         60.9690   48.7150    2.9780 N.3    34  LEU34      -0.1231
    100  CA        60.9580   49.2830    1.6330 C.3    34  LEU34       0.1693
    101  C         59.5290   49.7310    1.3570 C.2    34  LEU34       0.2591
    102  O         58.7680   49.0400    0.6810 O.2    34  LEU34      -0.2718
    103  CB        61.3880   48.2320    0.6080 C.3    34  LEU34       0.0284
    104  CG        62.7520   47.5810    0.8550 C.3    34  LEU34       0.0019
    105  CD1       63.0650   46.6150   -0.2760 C.3    34  LEU34       0.0001
    106  CD2       63.8280   48.6550    0.9530 C.3    34  LEU34       0.0001
    107  N         59.1760   50.8950    1.8920 N.am   35  LEU35      -0.1980
    108  CA        57.8310   51.4370    1.7520 C.3    35  LEU35       0.1596
    109  C         57.8590   52.9090    1.3730 C.2    35  LEU35       0.2287
    110  O         58.8160   53.6210    1.6710 O.2    35  LEU35      -0.2864
    111  CB        57.0860   51.3010    3.0830 C.3    35  LEU35       0.0297
    112  CG        57.1040   49.9450    3.7880 C.3    35  LEU35       0.0022
    113  CD1       56.7120   50.1140    5.2480 C.3    35  LEU35       0.0001
    114  CD2       56.1620   48.9930    3.0820 C.3    35  LEU35       0.0001
    115  N         47.7730   38.8300    6.3860 N.3    64  PHE64      -0.1241
    116  CA        48.8560   39.4440    5.6250 C.3    64  PHE64       0.1605
    117  C         50.1970   39.0120    6.2140 C.2    64  PHE64       0.2264
    118  O         51.1040   38.5890    5.4920 O.2    64  PHE64      -0.2867
    119  CB        48.7710   40.9700    5.6470 C.3    64  PHE64       0.0534
    120  CG        49.8910   41.6280    4.8960 C.ar   64  PHE64      -0.0203
    121  CD1       49.9190   41.6020    3.5080 C.ar   64  PHE64      -0.0042
    122  CD2       50.9630   42.1890    5.5760 C.ar   64  PHE64      -0.0042
    123  CE1       51.0010   42.1200    2.8110 C.ar   64  PHE64      -0.0003
    124  CE2       52.0480   42.7080    4.8860 C.ar   64  PHE64      -0.0003
    125  CZ        52.0670   42.6720    3.5020 C.ar   64  PHE64      -0.0000
    126  N         53.9770   51.5740    7.9410 N.3    77  MET77      -0.1245
    127  CA        53.0530   51.8070    6.8370 C.3    77  MET77       0.1570
    128  C         51.9460   52.7660    7.2790 C.2    77  MET77       0.2261
    129  O         51.2560   53.3670    6.4500 O.2    77  MET77      -0.2867
    130  CB        52.4520   50.4760    6.3770 C.3    77  MET77       0.0387
    131  CG        52.1710   50.4010    4.8870 C.3    77  MET77       0.0595
    132  SD        51.5520   48.7860    4.3640 S.3    77  MET77      -0.1393
    133  CE        53.0540   47.8970    4.0520 C.3    77  MET77       0.0692
    134  N         45.2350   31.1710   -3.8680 N.3   100  VAL100     -0.1245
    135  CA        44.8470   32.5720   -3.7200 C.3   100  VAL100      0.1561
    136  C         44.5930   33.0850   -5.1330 C.2   100  VAL100      0.2260
    137  O         45.3740   32.8170   -6.0530 O.2   100  VAL100     -0.2867
    138  CB        45.9450   33.4210   -3.0000 C.3   100  VAL100      0.0252
    139  CG1       47.2250   33.4420   -3.8050 C.3   100  VAL100      0.0019
    140  CG2       45.4330   34.8370   -2.7670 C.3   100  VAL100      0.0019
    141  N         43.0180   36.4720   -7.6660 N.3   102  ARG102     -0.1245
    142  CA        42.6110   37.8660   -7.8000 C.3   102  ARG102      0.1563
    143  C         41.3720   37.9720   -8.6770 C.2   102  ARG102      0.2260
    144  O         41.2530   37.2630   -9.6770 O.2   102  ARG102     -0.2867
    145  CB        43.7130   38.6950   -8.4660 C.3   102  ARG102      0.0307
    146  CG        45.0340   38.7630   -7.7360 C.3   102  ARG102      0.0489
    147  CD        46.0550   39.4560   -8.6290 C.3   102  ARG102      0.2205
    148  NE        47.3700   39.5520   -8.0060 N.pl3 102  ARG102     -0.0865
    149  CZ        48.5090   39.2240   -8.6080 C.cat 102  ARG102      0.5346
    150  NH1       48.4990   38.7710   -9.8560 N.pl3 102  ARG102      0.1354
    151  NH2       49.6600   39.3530   -7.9620 N.pl3 102  ARG102      0.1354
    152  N         39.2840   39.2750   -3.7590 N.3   109  VAL109     -0.1245
    153  CA        40.2380   38.1790   -3.7350 C.3   109  VAL109      0.1561
    154  C         39.5290   36.9670   -3.1460 C.2   109  VAL109      0.2260
    155  O         38.5840   37.1080   -2.3710 O.2   109  VAL109     -0.2867
    156  CB        41.4650   38.5060   -2.8330 C.3   109  VAL109      0.0252
    157  CG1       42.2590   37.2410   -2.5530 C.3   109  VAL109      0.0019
    158  CG2       42.3590   39.5400   -3.5070 C.3   109  VAL109      0.0019
    159  N         44.0530   29.3460    1.6580 N.3   113  TYR113     -0.1241
    160  CA        45.3650   29.0010    2.1970 C.3   113  TYR113      0.1605
    161  C         45.3160   27.7790    3.0980 C.2   113  TYR113      0.2264
    162  O         46.1900   26.9130    3.0260 O.2   113  TYR113     -0.2867
    163  CB        45.9530   30.1760    2.9790 C.3   113  TYR113      0.0534
    164  CG        46.8190   31.0870    2.1450 C.ar  113  TYR113     -0.0201
    165  CD1       46.3590   32.3270    1.7240 C.ar  113  TYR113     -0.0009
    166  CD2       48.1000   30.7000    1.7700 C.ar  113  TYR113     -0.0009
    167  CE1       47.1550   33.1610    0.9510 C.ar  113  TYR113      0.0417
    168  CE2       48.9040   31.5270    0.9960 C.ar  113  TYR113      0.0417
    169  CZ        48.4260   32.7540    0.5910 C.ar  113  TYR113      0.1957
    170  OH        49.2210   33.5760   -0.1780 O.3   113  TYR113     -0.2866
    171  N         42.7290   44.5340    4.4040 N.3   322  TYR322     -0.1241
    172  CA        43.7690   43.6780    3.8570 C.3   322  TYR322      0.1605
    173  C         43.6930   43.7520    2.3380 C.2   322  TYR322      0.2264
    174  O         44.5940   44.2860    1.6900 O.2   322  TYR322     -0.2867
    175  CB        43.5970   42.2280    4.3360 C.3   322  TYR322      0.0534
    176  CG        44.6660   41.2570    3.8480 C.ar  322  TYR322     -0.0201
    177  CD1       44.6960   39.9450    4.3100 C.ar  322  TYR322     -0.0009
    178  CD2       45.6240   41.6390    2.9110 C.ar  322  TYR322     -0.0009
    179  CE1       45.6410   39.0450    3.8570 C.ar  322  TYR322      0.0417
    180  CE2       46.5790   40.7360    2.4470 C.ar  322  TYR322      0.0417
    181  CZ        46.5790   39.4400    2.9250 C.ar  322  TYR322      0.1957
    182  OH        47.5070   38.5270    2.4740 O.3   322  TYR322     -0.2866
    183  N         44.7910   46.7320    0.3540 N.3   325  LEU325     -0.1231
    184  CA        46.2390   46.8870    0.2880 C.3   325  LEU325      0.1693
    185  C         46.7860   46.1460   -0.9330 C.2   325  LEU325      0.2592
    186  O         47.7100   46.6180   -1.5990 O.2   325  LEU325     -0.2718
    187  CB        46.8800   46.3360    1.5700 C.3   325  LEU325      0.0284
    188  CG        48.3990   46.4260    1.7380 C.3   325  LEU325      0.0019
    189  CD1       48.8300   47.8860    1.7770 C.3   325  LEU325      0.0001
    190  CD2       48.8050   45.7180    3.0250 C.3   325  LEU325      0.0001
    191  N         46.1980   44.9940   -1.2440 N.am  326  THR326     -0.1953
    192  CA        46.6640   44.2090   -2.3820 C.3   326  THR326      0.1897
    193  C         46.3770   44.8660   -3.7290 C.2   326  THR326      0.2313
    194  O         47.0220   44.5490   -4.7260 O.2   326  THR326     -0.2863
    195  CB        46.0620   42.7830   -2.3700 C.3   326  THR326      0.1794
    196  OG1       44.6930   42.8270   -2.7850 O.3   326  THR326     -0.2208
    197  CG2       46.1330   42.1980   -0.9670 C.3   326  THR326      0.0378
    198  N         50.5520   50.2120   -0.1990 N.3   330  PRO330     -0.2116
    199  CA        50.7660   50.9500    1.0520 C.3   330  PRO330      0.1372
    200  C         50.1010   52.3220    1.1830 C.2   330  PRO330      0.2244
    201  O         49.6110   52.6740    2.2560 O.2   330  PRO330     -0.2868
    202  CB        52.2900   51.0340    1.1410 C.3   330  PRO330      0.0268
    203  CG        52.7120   49.7330    0.5430 C.3   330  PRO330      0.0207
    204  CD        51.8180   49.6320   -0.6830 C.3   330  PRO330      0.0892
@<TRIPOS>BOND
     1    40    39    2
     2    39    38    1
     3    29    30    1
     4    13    14    1
     5    38    37    1
     6    38    41    1
     7    32    31    2
     8    37    31   am
     9    31    30    1
    10    30    33    1
    11    41    42    1
    12   150   149    1
    13    16    15    2
    14   144   143    2
    15    14    15    1
    16    14    17    1
    17    24    23    2
    18    23    22    1
    19    15    21   am
    20    33    34    1
    21    44    43    2
    22   143   142    1
    23   147   148    1
    24   147   146    1
    25   149   148    2
    26   149   151    1
    27    21    22    1
    28    42    43    1
    29   145   142    1
    30   145   146    1
    31    17    18    1
    32    35    34    1
    33    22    25    1
    34    52    46    1
    35    52    51    1
    36    43    45   am
    37     4     3    2
    38   142   141    1
    39    34    36    1
    40    18    19    1
    41    18    20    1
    42    46    47    1
    43     3     2    1
    44    25    26    1
    45     1     2    1
    46    51    50    1
    47     2     5    1
    48    47    50    1
    49    47    48    1
    50   137   136    2
    51    26    27    1
    52    57    54    1
    53     5     6    1
    54    75    73    1
    55   136   135    1
    56    27    28    1
    57    53    54    1
    58    48    49    2
    59    54    55    1
    60   194   193    2
    61     7     6   ar
    62     7     9   ar
    63     6     8   ar
    64     9    11   ar
    65     8    10   ar
    66   134   135    1
    67   139   138    1
    68   152   153    1
    69   153   154    1
    70   153   156    1
    71   193   192    1
    72   135   138    1
    73    73    74    1
    74    73    72    1
    75    11    10   ar
    76    11    12    1
    77   158   156    1
    78    91    90   ar
    79    91    89   ar
    80    55    56    2
    81    55    58   am
    82    72    69    1
    83   154   155    2
    84    90    88   ar
    85   138   140    1
    86   156   157    1
    87   196   195    1
    88    89    87   ar
    89    58    59    1
    90   192   195    1
    91   192   191    1
    92   195   197    1
    93    88    86   ar
    94    69    68    1
    95    69    70    1
    96   186   185    2
    97    87    86   ar
    98   191   185   am
    99    59    62    1
   100    59    60    1
   101    86    85    1
   102    70    76   am
   103    70    71    2
   104   185   184    1
   105    76    77    1
   106   204   198    1
   107   204   203    1
   108    62    63    1
   109    60    61    2
   110   105   104    1
   111   198   199    1
   112   170   169    1
   113    80    77    1
   114    77    78    1
   115    85    82    1
   116   184   183    1
   117   184   187    1
   118   203   202    1
   119   169   167   ar
   120   169   168   ar
   121   103   104    1
   122   103   100    1
   123   102   101    2
   124    63    64   ar
   125    63    65   ar
   126   104   106    1
   127   167   165   ar
   128   168   166   ar
   129   199   202    1
   130   199   200    1
   131   200   201    2
   132   101   100    1
   133   101   107   am
   134    82    81    1
   135    82    83    1
   136   109   110    2
   137   109   108    1
   138    78    79    2
   139   187   188    1
   140    64    66   ar
   141   100    99    1
   142   159   160    1
   143    65    67   ar
   144   174   173    2
   145   165   164   ar
   146   188   189    1
   147   188   190    1
   148   108   107    1
   149   108   111    1
   150   166   164   ar
   151   164   163    1
   152   160   163    1
   153   160   161    1
   154   173   172    1
   155   180   178   ar
   156   180   181   ar
   157   182   181    1
   158    83    84    2
   159    83    92   am
   160   123   125   ar
   161   123   121   ar
   162    66    67   ar
   163   178   176   ar
   164   181   179   ar
   165   162   161    2
   166   114   112    1
   167   111   112    1
   168    92    93    1
   169   125   124   ar
   170   121   120   ar
   171    97    96    1
   172   112   113    1
   173   176   177   ar
   174   176   175    1
   175   179   177   ar
   176   172   175    1
   177   172   171    1
   178   133   132    1
   179   132   131    1
   180    93    96    1
   181    93    94    1
   182    96    98    1
   183   124   122   ar
   184   131   130    1
   185   120   122   ar
   186   120   119    1
   187   118   117    2
   188    94    95    2
   189   116   119    1
   190   116   117    1
   191   116   115    1
   192   130   127    1
   193   129   128    2
   194   127   128    1
   195   127   126    1
