@<TRIPOS>MOLECULE
tmp/2fqxA00.pdb
 154 145 0 0 0
SMALL
GASTEIGER

@<TRIPOS>ATOM
      1  N         40.2260   63.9240    4.1270 N.3    10  ASP10      -0.1225
      2  CA        39.3200   63.8230    2.9750 C.3    10  ASP10       0.1805
      3  C         38.2750   64.9250    3.0890 C.2    10  ASP10       0.2598
      4  O         37.3440   65.0270    2.2890 O.2    10  ASP10      -0.2718
      5  CB        38.6600   62.4240    2.8610 C.3    10  ASP10       0.1424
      6  CG        37.8630   62.0020    4.1220 C.2    10  ASP10       0.3668
      7  OD1       37.4160   62.8750    4.8930 O.co2  10  ASP10      -0.2456
      8  OD2       37.6680   60.7700    4.3160 O.co2  10  ASP10      -0.2456
      9  N         38.4700   65.7820    4.0770 N.am   11  SER11      -0.1952
     10  CA        37.5500   66.8810    4.3150 C.3    11  SER11       0.1924
     11  C         38.1960   68.2580    4.2660 C.2    11  SER11       0.2314
     12  O         39.2870   68.4640    4.7950 O.2    11  SER11      -0.2863
     13  CB        36.9090   66.7230    5.6940 C.3    11  SER11       0.2116
     14  OG        36.4520   67.9700    6.1820 O.3    11  SER11      -0.2180
     15  N         35.3350   71.5100   11.7870 N.3    16  ASP16      -0.1239
     16  CA        34.0510   70.8240   11.7420 C.3    16  ASP16       0.1674
     17  C         33.3830   70.6160   13.1030 C.2    16  ASP16       0.2266
     18  O         32.3460   69.9630   13.1760 O.2    16  ASP16      -0.2867
     19  CB        34.2050   69.4640   11.0150 C.3    16  ASP16       0.1410
     20  CG        35.0630   68.4580   11.7900 C.2    16  ASP16       0.3668
     21  OD1       35.6270   68.7700   12.8700 O.co2  16  ASP16      -0.2456
     22  OD2       35.1610   67.3150   11.3010 O.co2  16  ASP16      -0.2456
     23  N         35.0220   65.5590   14.4280 N.3    19  PHE19      -0.1227
     24  CA        36.1380   64.6730   14.1200 C.3    19  PHE19       0.1736
     25  C         37.4430   65.2490   13.5920 C.2    19  PHE19       0.2595
     26  O         38.5180   65.0220   14.1890 O.2    19  PHE19      -0.2718
     27  CB        35.6400   63.5900   13.1630 C.3    19  PHE19       0.0547
     28  CG        36.6820   62.5420   12.8210 C.ar   19  PHE19      -0.0202
     29  CD1       37.1450   61.6580   13.7890 C.ar   19  PHE19      -0.0042
     30  CD2       37.1610   62.4430   11.5180 C.ar   19  PHE19      -0.0042
     31  CE1       38.0820   60.6660   13.4630 C.ar   19  PHE19      -0.0003
     32  CE2       38.1040   61.4570   11.1670 C.ar   19  PHE19      -0.0003
     33  CZ        38.5630   60.5670   12.1400 C.ar   19  PHE19      -0.0000
     34  N         37.3920   65.9640   12.4670 N.am   20  ASN20      -0.1974
     35  CA        38.6420   66.5050   11.9300 C.3    20  ASN20       0.1688
     36  C         39.2290   67.5510   12.8780 C.2    20  ASN20       0.2292
     37  O         40.4590   67.6970   12.9760 O.2    20  ASN20      -0.2864
     38  CB        38.4250   67.0860   10.5310 C.3    20  ASN20       0.1181
     39  CG        37.9630   66.0390    9.5490 C.2    20  ASN20       0.2629
     40  OD1       38.7440   65.1740    9.1400 O.2    20  ASN20      -0.2716
     41  ND2       36.6950   66.0940    9.1690 N.am   20  ASN20      -0.0877
     42  N         43.0250   59.8310    7.7580 N.3    67  CYS67      -0.1221
     43  CA        41.8490   59.2480    8.4180 C.3    67  CYS67       0.1808
     44  C         40.7350   58.7200    7.5060 C.2    67  CYS67       0.2602
     45  O         40.5030   59.2340    6.4220 O.2    67  CYS67      -0.2717
     46  CB        41.2150   60.2660    9.3580 C.3    67  CYS67       0.0970
     47  SG        42.3490   60.8900   10.6160 S.3    67  CYS67      -0.0800
     48  N         40.0570   57.6680    7.9520 N.am   68  GLY68      -0.1942
     49  CA        38.9280   57.1860    7.1910 C.3    68  GLY68       0.2014
     50  C         39.0810   56.1050    6.1560 C.2    68  GLY68       0.2640
     51  O         40.1850   55.7650    5.7120 O.2    68  GLY68      -0.2714
     52  N         37.9380   55.5710    5.7460 N.am   69  SER69      -0.1935
     53  CA        37.8820   54.5020    4.7590 C.3    69  SER69       0.2055
     54  C         38.1360   54.9600    3.3330 C.2    69  SER69       0.2643
     55  O         38.3520   54.1430    2.4370 O.2    69  SER69      -0.2714
     56  CB        36.5130   53.8060    4.8210 C.3    69  SER69       0.2130
     57  OG        36.3060   53.1870    6.0730 O.3    69  SER69      -0.2179
     58  N         38.1020   56.2710    3.1040 N.am   70  PHE70      -0.1973
     59  CA        38.3200   56.7700    1.7700 C.3    70  PHE70       0.1639
     60  C         39.7910   56.8100    1.4670 C.2    70  PHE70       0.2290
     61  O         40.1910   56.5580    0.3290 O.2    70  PHE70      -0.2864
     62  CB        37.6850   58.1500    1.5950 C.3    70  PHE70       0.0560
     63  CG        36.1890   58.1050    1.6350 C.ar   70  PHE70      -0.0200
     64  CD1       35.4750   57.5240    0.5870 C.ar   70  PHE70      -0.0042
     65  CD2       35.4980   58.5520    2.7480 C.ar   70  PHE70      -0.0042
     66  CE1       34.0690   57.3830    0.6560 C.ar   70  PHE70      -0.0003
     67  CE2       34.0980   58.4200    2.8290 C.ar   70  PHE70      -0.0003
     68  CZ        33.3900   57.8330    1.7780 C.ar   70  PHE70      -0.0000
     69  N         40.5540   55.5100   12.2510 N.3    91  ASP91      -0.1239
     70  CA        39.2470   55.0030   11.7770 C.3    91  ASP91       0.1674
     71  C         39.3200   53.9950   10.6470 C.2    91  ASP91       0.2266
     72  O         38.3490   53.7940    9.9100 O.2    91  ASP91      -0.2867
     73  CB        38.3430   56.1590   11.3340 C.3    91  ASP91       0.1410
     74  CG        37.6060   56.7900   12.4930 C.2    91  ASP91       0.3668
     75  OD1       37.5990   56.1900   13.5880 O.co2  91  ASP91      -0.2456
     76  OD2       37.0310   57.8790   12.3000 O.co2  91  ASP91      -0.2456
     77  N         33.8070   52.6290   19.3440 N.3   107  GLN107     -0.1245
     78  CA        32.6850   53.5600   19.3290 C.3   107  GLN107      0.1566
     79  C         31.3520   52.8520   19.5300 C.2   107  GLN107      0.2260
     80  O         30.3680   53.5130   19.8760 O.2   107  GLN107     -0.2867
     81  CB        32.7100   54.4270   18.0470 C.3   107  GLN107      0.0367
     82  CG        32.7370   53.6230   16.7480 C.3   107  GLN107      0.0905
     83  CD        33.5660   54.2820   15.6630 C.2   107  GLN107      0.2608
     84  OE1       34.3710   55.1700   15.9460 O.2   107  GLN107     -0.2717
     85  NE2       33.3970   53.8380   14.4200 N.am  107  GLN107     -0.0878
     86  N         32.0010   52.7930   10.5700 N.3   141  MET141     -0.1245
     87  CA        30.8410   53.5920   10.9460 C.3   141  MET141      0.1570
     88  C         29.6660   52.8140   11.5390 C.2   141  MET141      0.2261
     89  O         29.0310   53.3080   12.4720 O.2   141  MET141     -0.2867
     90  CB        30.3530   54.4320    9.7490 C.3   141  MET141      0.0387
     91  CG        31.3390   55.5150    9.2980 C.3   141  MET141      0.0595
     92  SD        31.7370   56.7560   10.5870 S.3   141  MET141     -0.1393
     93  CE        30.1090   57.4740   10.8710 C.3   141  MET141      0.0692
     94  N         28.6430   52.6160   15.4330 N.3   144  PHE144     -0.1241
     95  CA        27.8630   53.5940   16.2180 C.3   144  PHE144      0.1605
     96  C         26.4190   53.1230   16.3600 C.2   144  PHE144      0.2264
     97  O         25.8700   53.0950   17.4630 O.2   144  PHE144     -0.2867
     98  CB        27.8600   54.9710   15.5370 C.3   144  PHE144      0.0534
     99  CG        29.1660   55.7200   15.6490 C.ar  144  PHE144     -0.0203
    100  CD1       29.4580   56.4870   16.7820 C.ar  144  PHE144     -0.0042
    101  CD2       30.0590   55.7300   14.5870 C.ar  144  PHE144     -0.0042
    102  CE1       30.6270   57.2690   16.8260 C.ar  144  PHE144     -0.0003
    103  CE2       31.2470   56.5180   14.6420 C.ar  144  PHE144     -0.0003
    104  CZ        31.5080   57.2770   15.7550 C.ar  144  PHE144     -0.0000
    105  N         29.6830   63.9970    5.2230 N.3   169  PHE169     -0.1241
    106  CA        30.0850   64.5400    6.5320 C.3   169  PHE169      0.1605
    107  C         30.2880   66.0450    6.4340 C.2   169  PHE169      0.2264
    108  O         30.7160   66.6710    7.3960 O.2   169  PHE169     -0.2867
    109  CB        31.4330   63.9320    6.9470 C.3   169  PHE169      0.0534
    110  CG        31.3640   62.4770    7.3150 C.ar  169  PHE169     -0.0203
    111  CD1       30.6950   62.0760    8.4540 C.ar  169  PHE169     -0.0042
    112  CD2       32.0130   61.5140    6.5350 C.ar  169  PHE169     -0.0042
    113  CE1       30.6620   60.7410    8.8440 C.ar  169  PHE169     -0.0003
    114  CE2       31.9940   60.1510    6.9000 C.ar  169  PHE169     -0.0003
    115  CZ        31.3120   59.7610    8.0670 C.ar  169  PHE169     -0.0000
    116  N         25.8190   61.2780   14.3320 N.3   193  VAL193     -0.1245
    117  CA        27.1890   60.7810   14.1620 C.3   193  VAL193      0.1561
    118  C         27.4820   61.1720   12.7390 C.2   193  VAL193      0.2260
    119  O         27.5750   60.3230   11.8470 O.2   193  VAL193     -0.2867
    120  CB        27.2000   59.2600   14.3190 C.3   193  VAL193      0.0252
    121  CG1       28.5780   58.7350   14.1430 C.3   193  VAL193      0.0019
    122  CG2       26.6300   58.9180   15.7210 C.3   193  VAL193      0.0019
    123  N         29.7660   64.1940   11.7810 N.3   195  GLY195     -0.1210
    124  CA        30.7950   65.1890   11.5300 C.3   195  GLY195      0.1956
    125  C         30.1900   66.5590   11.2710 C.2   195  GLY195      0.2612
    126  O         29.2520   66.9660   11.9690 O.2   195  GLY195     -0.2717
    127  N         30.7360   67.2690   10.2810 N.am  196  GLY196     -0.1956
    128  CA        30.2490   68.5990    9.9360 C.3   196  GLY196      0.1869
    129  C         28.7510   68.6460    9.6590 C.2   196  GLY196      0.2309
    130  O         28.0710   69.6110   10.0520 O.2   196  GLY196     -0.2863
    131  N         28.6230   64.1460   19.1580 N.3   220  VAL220     -0.1231
    132  CA        29.6300   63.1150   18.9190 C.3   220  VAL220      0.1692
    133  C         31.0040   63.7610   18.7860 C.2   220  VAL220      0.2592
    134  O         31.0990   64.9420   18.5030 O.2   220  VAL220     -0.2718
    135  CB        29.2760   62.3430   17.5870 C.3   220  VAL220      0.0266
    136  CG1       29.5250   63.2440   16.3640 C.3   220  VAL220      0.0020
    137  CG2       30.0700   61.0310   17.4730 C.3   220  VAL220      0.0020
    138  N         32.0370   62.9460   19.0040 N.am  221  ASP221     -0.1974
    139  CA        33.4570   63.3010   18.8840 C.3   221  ASP221      0.1709
    140  C         33.9580   64.1970   19.9920 C.2   221  ASP221      0.2293
    141  O         34.8600   63.8200   20.7310 O.2   221  ASP221     -0.2864
    142  CB        33.7560   63.9370   17.5110 C.3   221  ASP221      0.1436
    143  CG        33.5840   62.9510   16.3510 C.2   221  ASP221      0.3671
    144  OD1       34.0400   61.7720   16.4320 O.co2 221  ASP221     -0.2456
    145  OD2       33.0210   63.3740   15.3310 O.co2 221  ASP221     -0.2456
    146  N         34.8650   60.9570   21.5000 N.3   243  LYS243     -0.1245
    147  CA        35.7860   60.0000   20.8580 C.3   243  LYS243      0.1561
    148  C         37.1010   60.7260   20.7780 C.2   243  LYS243      0.2260
    149  O         37.2350   61.6620   19.9880 O.2   243  LYS243     -0.2867
    150  CB        35.2320   59.6610   19.4700 C.3   243  LYS243      0.0271
    151  CG        36.0860   58.7330   18.6170 C.3   243  LYS243      0.0035
    152  CD        35.3070   58.3350   17.3180 C.3   243  LYS243      0.0206
    153  CE        36.2990   57.9730   16.2160 C.3   243  LYS243      0.1093
    154  NZ        35.5640   57.5710   14.9700 N.3   243  LYS243     -0.1314
@<TRIPOS>BOND
     1    61    60    2
     2    64    66   ar
     3    64    63   ar
     4    66    68   ar
     5    60    59    1
     6    62    63    1
     7    62    59    1
     8    63    65   ar
     9    59    58    1
    10    68    67   ar
    11     4     3    2
    12    55    54    2
    13    65    67   ar
    14     5     2    1
    15     5     6    1
    16     2     3    1
    17     2     1    1
    18     3     9   am
    19    58    54   am
    20    54    53    1
    21     9    10    1
    22     6     8   ar
    23     6     7   ar
    24    11    10    1
    25    11    12    2
    26    10    13    1
    27    53    56    1
    28    53    52    1
    29    56    57    1
    30   105   106    1
    31    13    14    1
    32    51    50    2
    33    52    50   am
    34    50    49    1
    35    45    44    2
    36   107   106    1
    37   107   108    2
    38   106   109    1
    39   112   114   ar
    40   112   110   ar
    41   114   115   ar
    42   109   110    1
    43    49    48    1
    44   110   111   ar
    45    44    48   am
    46    44    43    1
    47    42    43    1
    48   115   113   ar
    49    43    46    1
    50   111   113   ar
    51    40    39    2
    52    41    39   am
    53    91    90    1
    54    91    92    1
    55    46    47    1
    56    39    38    1
    57   129   128    1
    58   129   130    2
    59    90    87    1
    60    72    71    2
    61   128   127    1
    62   127   125   am
    63    38    35    1
    64    86    87    1
    65    92    93    1
    66    71    70    1
    67    87    88    1
    68    19    16    1
    69    19    20    1
    70    32    30   ar
    71    32    33   ar
    72   125   124    1
    73   125   126    2
    74    22    20   ar
    75    73    70    1
    76    73    74    1
    77    30    28   ar
    78   124   123    1
    79    88    89    2
    80    16    15    1
    81    16    17    1
    82    70    69    1
    83    20    21   ar
    84   119   118    2
    85    35    34    1
    86    35    36    1
    87    33    31   ar
    88    76    74   ar
    89    34    25   am
    90    74    75   ar
    91   118   117    1
    92    28    27    1
    93    28    29   ar
    94    36    37    2
    95    17    18    2
    96    27    24    1
    97    31    29   ar
    98    25    24    1
    99    25    26    2
   100    24    23    1
   101   121   120    1
   102   117   120    1
   103   117   116    1
   104   120   122    1
   105    85    83   am
   106   101   103   ar
   107   101    99   ar
   108   103   104   ar
   109   154   153    1
   110   145   143   ar
   111    94    95    1
   112    98    99    1
   113    98    95    1
   114    99   100   ar
   115    83    84    2
   116    83    82    1
   117   104   102   ar
   118   153   152    1
   119    95    96    1
   120   143   144   ar
   121   143   142    1
   122    96    97    2
   123   136   135    1
   124    82    81    1
   125   100   102   ar
   126   152   151    1
   127   137   135    1
   128   142   139    1
   129   135   132    1
   130    81    78    1
   131   134   133    2
   132   151   150    1
   133   133   132    1
   134   133   138   am
   135   139   138    1
   136   139   140    1
   137   132   131    1
   138    78    77    1
   139    78    79    1
   140   150   147    1
   141    79    80    2
   142   149   148    2
   143   140   141    2
   144   148   147    1
   145   147   146    1
