@<TRIPOS>MOLECULE
tmp/2fqyA00.pdb
 160 151 0 0 0
SMALL
GASTEIGER

@<TRIPOS>ATOM
      1  N         39.8460   63.9110    4.4170 N.3    10  ASP10      -0.1225
      2  CA        39.2140   63.3340    3.2400 C.3    10  ASP10       0.1805
      3  C         37.8980   64.0320    2.9090 C.2    10  ASP10       0.2598
      4  O         37.2930   63.7710    1.8740 O.2    10  ASP10      -0.2718
      5  CB        38.9850   61.8220    3.4190 C.3    10  ASP10       0.1424
      6  CG        37.9780   61.4870    4.5110 C.2    10  ASP10       0.3668
      7  OD1       37.2610   62.3860    5.0170 O.co2  10  ASP10      -0.2456
      8  OD2       37.8940   60.2860    4.8450 O.co2  10  ASP10      -0.2456
      9  N         37.4720   64.9390    3.7800 N.am   11  SER11      -0.1952
     10  CA        36.2130   65.6380    3.5840 C.3    11  SER11       0.1924
     11  C         36.0690   66.7130    4.6610 C.2    11  SER11       0.2314
     12  O         36.4010   66.4820    5.8290 O.2    11  SER11      -0.2863
     13  CB        35.0500   64.6320    3.6860 C.3    11  SER11       0.2116
     14  OG        33.7930   65.2320    3.3970 O.3    11  SER11      -0.2180
     15  N         35.3300   71.4320   11.7080 N.3    16  ASP16      -0.1239
     16  CA        34.0830   70.6670   11.6440 C.3    16  ASP16       0.1674
     17  C         33.3880   70.4180   12.9760 C.2    16  ASP16       0.2266
     18  O         32.3750   69.7200   13.0120 O.2    16  ASP16      -0.2867
     19  CB        34.2960   69.3160   10.9190 C.3    16  ASP16       0.1410
     20  CG        35.1140   68.3210   11.7330 C.2    16  ASP16       0.3668
     21  OD1       35.6420   68.6790   12.8080 O.co2  16  ASP16      -0.2456
     22  OD2       35.2400   67.1600   11.2910 O.co2  16  ASP16      -0.2456
     23  N         35.0990   65.5140   14.2540 N.3    19  PHE19      -0.1227
     24  CA        36.1840   64.5970   13.8780 C.3    19  PHE19       0.1736
     25  C         37.5100   65.2010   13.4230 C.2    19  PHE19       0.2595
     26  O         38.5630   64.9320   14.0400 O.2    19  PHE19      -0.2718
     27  CB        35.6440   63.6180   12.8170 C.3    19  PHE19       0.0547
     28  CG        36.6090   62.4960   12.4490 C.ar   19  PHE19      -0.0202
     29  CD1       37.0510   61.5910   13.4120 C.ar   19  PHE19      -0.0042
     30  CD2       37.0330   62.3320   11.1300 C.ar   19  PHE19      -0.0042
     31  CE1       37.9080   60.5310   13.0650 C.ar   19  PHE19      -0.0003
     32  CE2       37.8990   61.2610   10.7670 C.ar   19  PHE19      -0.0003
     33  CZ        38.3280   60.3620   11.7410 C.ar   19  PHE19      -0.0000
     34  N         37.4870   65.9790   12.3400 N.am   20  ASN20      -0.1974
     35  CA        38.7200   66.5990   11.8440 C.3    20  ASN20       0.1688
     36  C         39.3010   67.4760   12.9330 C.2    20  ASN20       0.2292
     37  O         40.5180   67.4930   13.1480 O.2    20  ASN20      -0.2864
     38  CB        38.4730   67.4720   10.6040 C.3    20  ASN20       0.1181
     39  CG        38.0460   66.6630    9.4090 C.2    20  ASN20       0.2629
     40  OD1       38.3370   65.4600    9.3130 O.2    20  ASN20      -0.2716
     41  ND2       37.3520   67.3150    8.4760 N.am   20  ASN20      -0.0877
     42  N         43.3250   61.2500    7.8250 N.3    67  CYS67      -0.1221
     43  CA        42.1630   61.4090    8.6890 C.3    67  CYS67       0.1808
     44  C         40.8690   60.9860    8.0140 C.2    67  CYS67       0.2602
     45  O         40.2970   61.7500    7.2410 O.2    67  CYS67      -0.2717
     46  CB        42.0990   62.8820    9.1470 C.3    67  CYS67       0.0970
     47  SG        40.7630   63.3350   10.2950 S.3    67  CYS67      -0.0800
     48  N         40.4170   59.7630    8.2940 N.am   68  GLY68      -0.1942
     49  CA        39.1730   59.2950    7.6950 C.3    68  GLY68       0.2014
     50  C         39.2910   58.0440    6.8370 C.2    68  GLY68       0.2640
     51  O         40.3170   57.8260    6.2130 O.2    68  GLY68      -0.2714
     52  N         38.2280   57.2480    6.7720 N.am   69  SER69      -0.1935
     53  CA        38.2450   56.0030    6.0070 C.3    69  SER69       0.2055
     54  C         38.2540   56.1270    4.4730 C.2    69  SER69       0.2643
     55  O         38.5990   55.1760    3.7930 O.2    69  SER69      -0.2714
     56  CB        37.0750   55.1140    6.4350 C.3    69  SER69       0.2130
     57  OG        35.8320   55.6890    6.0670 O.3    69  SER69      -0.2179
     58  N         37.8800   57.2800    3.9240 N.am   70  PHE70      -0.1973
     59  CA        37.8870   57.4220    2.4730 C.3    70  PHE70       0.1639
     60  C         39.3180   57.3190    1.9410 C.2    70  PHE70       0.2290
     61  O         39.5210   57.0440    0.7570 O.2    70  PHE70      -0.2864
     62  CB        37.3320   58.7780    2.0390 C.3    70  PHE70       0.0560
     63  CG        35.9290   59.0520    2.4960 C.ar   70  PHE70      -0.0200
     64  CD1       35.0440   58.0090    2.7670 C.ar   70  PHE70      -0.0042
     65  CD2       35.4720   60.3700    2.5950 C.ar   70  PHE70      -0.0042
     66  CE1       33.7190   58.2750    3.1270 C.ar   70  PHE70      -0.0003
     67  CE2       34.1500   60.6470    2.9530 C.ar   70  PHE70      -0.0003
     68  CZ        33.2740   59.5950    3.2180 C.ar   70  PHE70      -0.0000
     69  N         40.6980   55.9030   11.9630 N.3    91  ASP91      -0.1239
     70  CA        39.3440   55.4130   11.7210 C.3    91  ASP91       0.1674
     71  C         39.1410   54.2680   10.7340 C.2    91  ASP91       0.2266
     72  O         38.0170   54.0230   10.2870 O.2    91  ASP91      -0.2867
     73  CB        38.4250   56.5930   11.3590 C.3    91  ASP91       0.1410
     74  CG        37.0360   56.4490   11.9680 C.2    91  ASP91       0.3668
     75  OD1       36.9560   56.0950   13.1650 O.co2  91  ASP91      -0.2456
     76  OD2       36.0400   56.6940   11.2540 O.co2  91  ASP91      -0.2456
     77  N         33.5910   52.3830   19.1010 N.3   107  GLN107     -0.1245
     78  CA        32.4690   53.2860   19.1050 C.3   107  GLN107      0.1566
     79  C         31.1340   52.5960   19.3460 C.2   107  GLN107      0.2260
     80  O         30.1720   53.2660   19.6980 O.2   107  GLN107     -0.2867
     81  CB        32.4760   54.1250   17.8130 C.3   107  GLN107      0.0367
     82  CG        32.4880   53.3180   16.5070 C.3   107  GLN107      0.0905
     83  CD        33.4030   53.9180   15.4470 C.2   107  GLN107      0.2608
     84  OE1       34.1950   54.8320   15.7280 O.2   107  GLN107     -0.2717
     85  NE2       33.3030   53.4070   14.2220 N.am  107  GLN107     -0.0878
     86  N         31.8440   52.5270   10.2480 N.3   141  MET141     -0.1245
     87  CA        30.6990   53.3600   10.6210 C.3   141  MET141      0.1570
     88  C         29.5170   52.6370   11.2650 C.2   141  MET141      0.2261
     89  O         28.9260   53.1710   12.1790 O.2   141  MET141     -0.2867
     90  CB        30.1950   54.1870    9.4320 C.3   141  MET141      0.0387
     91  CG        31.2040   55.2690    8.9480 C.3   141  MET141      0.0595
     92  SD        31.7820   56.3940   10.2480 S.3   141  MET141     -0.1393
     93  CE        30.2230   57.1500   10.8050 C.3   141  MET141      0.0692
     94  N         28.5240   52.4070   15.2800 N.3   144  PHE144     -0.1241
     95  CA        27.7240   53.3890   16.0350 C.3   144  PHE144      0.1605
     96  C         26.2660   52.9410   16.1980 C.2   144  PHE144      0.2264
     97  O         25.7610   52.8620   17.3080 O.2   144  PHE144     -0.2867
     98  CB        27.7360   54.7530   15.3480 C.3   144  PHE144      0.0534
     99  CG        29.0400   55.4930   15.4530 C.ar  144  PHE144     -0.0203
    100  CD1       29.3060   56.2950   16.5610 C.ar  144  PHE144     -0.0042
    101  CD2       29.9720   55.4440   14.4040 C.ar  144  PHE144     -0.0042
    102  CE1       30.5020   57.0580   16.6330 C.ar  144  PHE144     -0.0003
    103  CE2       31.1710   56.1910   14.4510 C.ar  144  PHE144     -0.0003
    104  CZ        31.4320   57.0070   15.5760 C.ar  144  PHE144     -0.0000
    105  N         29.6540   63.6520    5.0490 N.3   169  PHE169     -0.1227
    106  CA        30.0590   64.1680    6.3450 C.3   169  PHE169      0.1736
    107  C         30.2300   65.6760    6.3030 C.2   169  PHE169      0.2596
    108  O         30.5440   66.2830    7.3130 O.2   169  PHE169     -0.2718
    109  CB        31.4140   63.5950    6.7670 C.3   169  PHE169      0.0547
    110  CG        31.3620   62.1670    7.1530 C.ar  169  PHE169     -0.0202
    111  CD1       30.6100   61.7660    8.2650 C.ar  169  PHE169     -0.0042
    112  CD2       32.0350   61.2160    6.4090 C.ar  169  PHE169     -0.0042
    113  CE1       30.5300   60.4380    8.6330 C.ar  169  PHE169     -0.0003
    114  CE2       31.9610   59.8670    6.7730 C.ar  169  PHE169     -0.0003
    115  CZ        31.2030   59.4780    7.8930 C.ar  169  PHE169     -0.0000
    116  N         30.0170   66.2830    5.1390 N.am  170  SER170     -0.1952
    117  CA        30.2120   67.7240    5.0250 C.3   170  SER170      0.1924
    118  C         29.0650   68.5190    4.4100 C.2   170  SER170      0.2314
    119  O         29.2990   69.4160    3.6000 O.2   170  SER170     -0.2863
    120  CB        31.5050   67.9930    4.2420 C.3   170  SER170      0.2116
    121  OG        32.6060   67.3040    4.8190 O.3   170  SER170     -0.2180
    122  N         25.7400   61.1890   14.1360 N.3   193  VAL193     -0.1245
    123  CA        27.0900   60.6260   13.9580 C.3   193  VAL193      0.1561
    124  C         27.4110   61.0140   12.5360 C.2   193  VAL193      0.2260
    125  O         27.5250   60.1740   11.6530 O.2   193  VAL193     -0.2867
    126  CB        27.0570   59.0820   14.0940 C.3   193  VAL193      0.0252
    127  CG1       28.4480   58.5210   13.9740 C.3   193  VAL193      0.0019
    128  CG2       26.4600   58.6910   15.4400 C.3   193  VAL193      0.0019
    129  N         29.7250   64.0640   11.5940 N.3   195  GLY195     -0.1210
    130  CA        30.7520   65.0840   11.4110 C.3   195  GLY195      0.1956
    131  C         30.1870   66.4630   11.1170 C.2   195  GLY195      0.2612
    132  O         29.2490   66.8890   11.7970 O.2   195  GLY195     -0.2717
    133  N         30.7250   67.1430   10.0960 N.am  196  GLY196     -0.1956
    134  CA        30.2590   68.4810    9.7500 C.3   196  GLY196      0.1869
    135  C         28.7590   68.5290    9.4560 C.2   196  GLY196      0.2309
    136  O         28.0640   69.4840    9.8190 O.2   196  GLY196     -0.2863
    137  N         28.6120   64.0160   19.0630 N.3   220  VAL220     -0.1231
    138  CA        29.6080   62.9910   18.7960 C.3   220  VAL220      0.1692
    139  C         31.0060   63.5940   18.6430 C.2   220  VAL220      0.2592
    140  O         31.1390   64.7840   18.3670 O.2   220  VAL220     -0.2718
    141  CB        29.2250   62.2260   17.5040 C.3   220  VAL220      0.0266
    142  CG1       29.4840   63.1300   16.2580 C.3   220  VAL220      0.0020
    143  CG2       29.9760   60.8840   17.4470 C.3   220  VAL220      0.0020
    144  N         32.0300   62.7550   18.8240 N.am  221  ASP221     -0.1974
    145  CA        33.4440   63.1340   18.7040 C.3   221  ASP221      0.1709
    146  C         33.8950   64.0480   19.8240 C.2   221  ASP221      0.2293
    147  O         34.7230   63.6620   20.6510 O.2   221  ASP221     -0.2864
    148  CB        33.7400   63.7690   17.3380 C.3   221  ASP221      0.1436
    149  CG        33.5240   62.7920   16.1710 C.2   221  ASP221      0.3671
    150  OD1       33.9550   61.6110   16.2600 O.co2 221  ASP221     -0.2456
    151  OD2       32.9410   63.2220   15.1490 O.co2 221  ASP221     -0.2456
    152  N         34.7550   60.7500   21.3380 N.3   243  LYS243     -0.1245
    153  CA        35.6890   59.8040   20.6950 C.3   243  LYS243      0.1561
    154  C         37.0450   60.4970   20.6190 C.2   243  LYS243      0.2260
    155  O         37.2420   61.4070   19.8170 O.2   243  LYS243     -0.2867
    156  CB        35.1650   59.4290   19.2970 C.3   243  LYS243      0.0271
    157  CG        36.0440   58.5100   18.4480 C.3   243  LYS243      0.0035
    158  CD        35.2250   58.0630   17.2110 C.3   243  LYS243      0.0206
    159  CE        36.0800   57.6790   16.0190 C.3   243  LYS243      0.1093
    160  NZ        35.2070   57.2720   14.8500 N.3   243  LYS243     -0.1314
@<TRIPOS>BOND
     1    61    60    2
     2     4     3    2
     3    60    59    1
     4    62    59    1
     5    62    63    1
     6    59    58    1
     7    63    65   ar
     8    63    64   ar
     9    65    67   ar
    10    64    66   ar
    11     3     2    1
    12     3     9   am
    13    67    68   ar
    14    66    68   ar
    15     2     5    1
    16     2     1    1
    17    14    13    1
    18     5     6    1
    19    10    13    1
    20    10     9    1
    21    10    11    1
    22   119   118    2
    23    55    54    2
    24    58    54   am
    25   120   121    1
    26   120   117    1
    27   118   117    1
    28    54    53    1
    29     6     8   ar
    30     6     7   ar
    31    11    12    2
    32   117   116    1
    33   105   106    1
    34   116   107   am
    35    53    56    1
    36    53    52    1
    37    57    56    1
    38    51    50    2
    39   107   106    1
    40   107   108    2
    41   106   109    1
    42   112   114   ar
    43   112   110   ar
    44   109   110    1
    45    52    50   am
    46   114   115   ar
    47    50    49    1
    48   110   111   ar
    49    45    44    2
    50    49    48    1
    51    42    43    1
    52   115   113   ar
    53    44    48   am
    54    44    43    1
    55   111   113   ar
    56    41    39   am
    57    43    46    1
    58    91    90    1
    59    91    92    1
    60    46    47    1
    61    40    39    2
    62    39    38    1
    63    90    87    1
    64   135   134    1
    65   135   136    2
    66   134   133    1
    67   133   131   am
    68    92    93    1
    69    86    87    1
    70    72    71    2
    71    38    35    1
    72    87    88    1
    73    71    70    1
    74    32    30   ar
    75    32    33   ar
    76    19    16    1
    77    19    20    1
    78   131   130    1
    79   131   132    2
    80    30    28   ar
    81    76    74   ar
    82    88    89    2
    83    22    20   ar
    84    73    70    1
    85    73    74    1
    86   130   129    1
    87    16    15    1
    88    16    17    1
    89   125   124    2
    90    70    69    1
    91    20    21   ar
    92    33    31   ar
    93    35    34    1
    94    35    36    1
    95    74    75   ar
    96    34    25   am
    97    28    27    1
    98    28    29   ar
    99   124   123    1
   100    27    24    1
   101    36    37    2
   102    17    18    2
   103    31    29   ar
   104    25    24    1
   105    25    26    2
   106    24    23    1
   107   123   126    1
   108   123   122    1
   109   127   126    1
   110   126   128    1
   111    85    83   am
   112   101   103   ar
   113   101    99   ar
   114   103   104   ar
   115   160   159    1
   116   151   149   ar
   117    94    95    1
   118    98    99    1
   119    98    95    1
   120    83    84    2
   121    83    82    1
   122    99   100   ar
   123   104   102   ar
   124   159   158    1
   125    95    96    1
   126   149   150   ar
   127   149   148    1
   128    96    97    2
   129   142   141    1
   130    82    81    1
   131   100   102   ar
   132   158   157    1
   133   148   145    1
   134   143   141    1
   135   141   138    1
   136    81    78    1
   137   140   139    2
   138   157   156    1
   139   139   138    1
   140   139   144   am
   141   145   144    1
   142   145   146    1
   143   138   137    1
   144    77    78    1
   145    78    79    1
   146   156   153    1
   147    79    80    2
   148   155   154    2
   149   146   147    2
   150   154   153    1
   151   153   152    1
