@<TRIPOS>MOLECULE
tmp/2fr5C00.pdb
 98 90 0 0 0
SMALL
GASTEIGER

@<TRIPOS>ATOM
      1  N          7.1080    6.0530   58.1930 N.3    25  SER25      -0.1217
      2  CA         5.9600    6.7440   58.7910 C.3    25  SER25       0.1889
      3  C          4.7980    6.9440   57.8300 C.2    25  SER25       0.2288
      4  O          3.6640    7.0700   58.2670 O.2    25  SER25      -0.2866
      5  CB         6.3620    8.1290   59.2910 C.3    25  SER25       0.2089
      6  OG         6.7140    8.9650   58.2030 O.3    25  SER25      -0.2183
      7  N          4.3790    9.6080   56.4890 N.3    27  PHE27      -0.1241
      8  CA         4.0230   10.9470   56.9560 C.3    27  PHE27       0.1605
      9  C          4.9410   11.9720   56.2600 C.2    27  PHE27       0.2264
     10  O          5.9900   12.3190   56.7940 O.2    27  PHE27      -0.2867
     11  CB         4.1850   11.0310   58.4800 C.3    27  PHE27       0.0534
     12  CG         3.6250   12.2940   59.0920 C.ar   27  PHE27      -0.0203
     13  CD1        2.2640   12.3870   59.3820 C.ar   27  PHE27      -0.0042
     14  CD2        4.4540   13.3820   59.3970 C.ar   27  PHE27      -0.0042
     15  CE1        1.7280   13.5450   59.9490 C.ar   27  PHE27      -0.0003
     16  CE2        3.9300   14.5520   59.9700 C.ar   27  PHE27      -0.0003
     17  CZ         2.5490   14.6360   60.2440 C.ar   27  PHE27      -0.0000
     18  N          6.5210   15.4310   54.9650 N.3    29  VAL29      -0.1245
     19  CA         6.6360   16.8090   55.4310 C.3    29  VAL29       0.1561
     20  C          7.4830   17.5930   54.4270 C.2    29  VAL29       0.2260
     21  O          8.4990   17.0800   53.9400 O.2    29  VAL29      -0.2867
     22  CB         7.2760   16.8990   56.8450 C.3    29  VAL29       0.0252
     23  CG1        7.2610   18.3350   57.3510 C.3    29  VAL29       0.0019
     24  CG2        6.5280   16.0080   57.8440 C.3    29  VAL29       0.0019
     25  N         11.2810   15.6460   54.7080 N.3    45  ASN45      -0.1240
     26  CA        11.8060   14.6180   55.5910 C.3    45  ASN45       0.1653
     27  C         12.4130   13.4500   54.8070 C.2    45  ASN45       0.2266
     28  O         11.9780   13.1190   53.6850 O.2    45  ASN45      -0.2867
     29  CB        10.7860   14.1520   56.6500 C.3    45  ASN45       0.1155
     30  CG         9.4780   13.6380   56.0620 C.2    45  ASN45       0.2627
     31  OD1        9.0050   14.1110   55.0260 O.2    45  ASN45      -0.2716
     32  ND2        8.8700   12.6760   56.7580 N.am   45  ASN45      -0.0877
     33  N         13.7230    9.6800   55.8280 N.3    47  GLU47      -0.1245
     34  CA        13.7430    8.6960   56.9030 C.3    47  GLU47       0.1567
     35  C         14.8310    7.6580   56.6960 C.2    47  GLU47       0.2260
     36  O         15.4700    7.6100   55.6380 O.2    47  GLU47      -0.2867
     37  CB        12.3570    8.0380   57.0500 C.3    47  GLU47       0.0388
     38  CG        11.3100    9.0580   57.4580 C.3    47  GLU47       0.1160
     39  CD         9.9400    8.5070   57.7420 C.2    47  GLU47       0.3649
     40  OE1        9.5910    7.3910   57.2930 O.co2  47  GLU47      -0.2457
     41  OE2        9.2020    9.2350   58.4230 O.co2  47  GLU47      -0.2457
     42  N         16.7900    9.3570   60.6190 N.3    54  GLY54      -0.1210
     43  CA        16.0650   10.2730   59.7230 C.3    54  GLY54       0.1956
     44  C         16.4140   11.7370   59.9620 C.2    54  GLY54       0.2612
     45  O         17.1330   12.0780   60.9070 O.2    54  GLY54      -0.2717
     46  N         15.8920   12.5960   59.0920 N.am   55  VAL55      -0.1965
     47  CA        15.9930   14.0330   59.2680 C.3    55  VAL55       0.1727
     48  C         14.6590   14.6680   58.8860 C.2    55  VAL55       0.2616
     49  O         13.9600   14.1780   57.9910 O.2    55  VAL55      -0.2715
     50  CB        17.1530   14.6430   58.4250 C.3    55  VAL55       0.0290
     51  CG1       16.9790   14.3280   56.9360 C.3    55  VAL55       0.0023
     52  CG2       17.2560   16.1690   58.6530 C.3    55  VAL55       0.0023
     53  N         14.3260   15.7550   59.5710 N.am   56  CYS56      -0.1954
     54  CA        13.1190   16.5150   59.3030 C.3    56  CYS56       0.1843
     55  C         13.2460   17.4490   58.1010 C.2    56  CYS56       0.2625
     56  O         14.3430   17.8970   57.7580 O.2    56  CYS56      -0.2714
     57  CB        12.7750   17.3540   60.5210 C.3    56  CYS56       0.0997
     58  SG        12.4500   16.3430   61.9810 S.3    56  CYS56      -0.0797
     59  N         12.0950   17.7550   57.5000 N.am   57  ALA57      -0.1963
     60  CA        12.0130   18.7270   56.4090 C.3    57  ALA57       0.1728
     61  C         12.6920   20.0650   56.6950 C.2    57  ALA57       0.2616
     62  O         13.4710   20.5310   55.8740 O.2    57  ALA57      -0.2715
     63  CB        10.5510   18.9420   55.9970 C.3    57  ALA57       0.0334
     64  N         12.4120   20.6560   57.8610 N.am   58  GLU58      -0.1977
     65  CA        12.9620   21.9670   58.2350 C.3    58  GLU58       0.1602
     66  C         14.4810   21.9400   58.1990 C.2    58  GLU58       0.2287
     67  O         15.1160   22.8730   57.6890 O.2    58  GLU58      -0.2864
     68  CB        12.4890   22.3870   59.6280 C.3    58  GLU58       0.0415
     69  CG        10.9760   22.4180   59.8230 C.3    58  GLU58       0.1163
     70  CD        10.4100   21.1080   60.3240 C.2    58  GLU58       0.3649
     71  OE1        9.9290   21.0860   61.4720 O.co2  58  GLU58      -0.2457
     72  OE2       10.4430   20.0990   59.5790 O.co2  58  GLU58      -0.2457
     73  N          0.9100   21.9780   61.1030 N.3    87  ILE87      -0.1231
     74  CA         2.1450   21.2130   61.2840 C.3    87  ILE87       0.1692
     75  C          3.1960   22.0650   61.9930 C.2    87  ILE87       0.2592
     76  O          3.5880   23.1410   61.5250 O.2    87  ILE87      -0.2718
     77  CB         2.6760   20.5610   59.9650 C.3    87  ILE87       0.0266
     78  CG1        3.9660   19.7600   60.2240 C.3    87  ILE87       0.0019
     79  CG2        2.9130   21.5970   58.8910 C.3    87  ILE87       0.0020
     80  CD1        3.7940   18.4750   61.0920 C.3    87  ILE87       0.0001
     81  N          3.6360   21.5510   63.1360 N.am   88  SER88      -0.1952
     82  CA         4.5110   22.2740   64.0410 C.3    88  SER88       0.1924
     83  C          5.9080   21.6700   64.0440 C.2    88  SER88       0.2314
     84  O          6.0560   20.4440   64.0150 O.2    88  SER88      -0.2863
     85  CB         3.9180   22.2170   65.4500 C.3    88  SER88       0.2116
     86  OG         4.7880   22.7960   66.3930 O.3    88  SER88      -0.2180
     87  N          9.2100   20.0590   65.3270 N.3    90  CYS90      -0.1235
     88  CA         9.6830   19.3470   66.5070 C.3    90  CYS90       0.1677
     89  C         10.7760   20.1710   67.2040 C.2    90  CYS90       0.2270
     90  O         11.3480   21.1260   66.6270 O.2    90  CYS90      -0.2867
     91  CB        10.2280   17.9630   66.1310 C.3    90  CYS90       0.0956
     92  SG        11.9340   18.0190   65.4840 S.3    90  CYS90      -0.0801
     93  N         14.2200   20.5860   65.3820 N.3    93  CYS93      -0.1235
     94  CA        14.1200   21.6270   64.3510 C.3    93  CYS93       0.1677
     95  C         14.1460   23.0420   64.9250 C.2    93  CYS93       0.2270
     96  O         14.8520   23.9000   64.4050 O.2    93  CYS93      -0.2867
     97  CB        12.8940   21.3730   63.4780 C.3    93  CYS93       0.0956
     98  SG        13.1450   19.9580   62.3890 S.3    93  CYS93      -0.0801
@<TRIPOS>BOND
     1    28    27    2
     2    21    20    2
     3    20    19    1
     4    25    26    1
     5    27    26    1
     6    18    19    1
     7    31    30    2
     8    19    22    1
     9    26    29    1
    10    36    35    2
    11    33    34    1
    12    62    61    2
    13    63    60    1
    14    30    29    1
    15    30    32   am
    16     9    10    2
    17     9     8    1
    18    60    61    1
    19    60    59    1
    20     7     8    1
    21    61    64   am
    22    35    34    1
    23    22    23    1
    24    22    24    1
    25    34    37    1
    26    51    50    1
    27     8    11    1
    28    37    38    1
    29    40    39   ar
    30    38    39    1
    31    59    55   am
    32    67    66    2
    33    39    41   ar
    34    56    55    2
    35     3     4    2
    36     3     2    1
    37    64    65    1
    38    49    48    2
    39    55    54    1
    40     1     2    1
    41    66    65    1
    42     6     5    1
    43    65    68    1
    44    50    52    1
    45    50    47    1
    46    11    12    1
    47     2     5    1
    48    48    47    1
    49    48    53   am
    50    79    77    1
    51    46    47    1
    52    46    44   am
    53    12    13   ar
    54    12    14   ar
    55    54    53    1
    56    54    57    1
    57    13    15   ar
    58    14    16   ar
    59    72    70   ar
    60    68    69    1
    61    43    44    1
    62    43    42    1
    63    69    70    1
    64    15    17   ar
    65    44    45    2
    66    77    78    1
    67    77    74    1
    68    16    17   ar
    69    78    80    1
    70    70    71   ar
    71    57    58    1
    72    73    74    1
    73    74    75    1
    74    76    75    2
    75    75    81   am
    76    98    97    1
    77    81    82    1
    78    97    94    1
    79    84    83    2
    80    82    83    1
    81    82    85    1
    82    94    95    1
    83    94    93    1
    84    96    95    2
    85    87    88    1
    86    85    86    1
    87    92    91    1
    88    91    88    1
    89    88    89    1
    90    90    89    2
