@<TRIPOS>MOLECULE
tmp/2fr6D00.pdb
 107 101 0 0 0
SMALL
GASTEIGER

@<TRIPOS>ATOM
      1  N         33.7470   19.4200   74.4310 N.3    25  SER25      -0.1217
      2  CA        33.2480   20.7320   74.8110 C.3    25  SER25       0.1889
      3  C         33.7810   21.1700   76.1670 C.2    25  SER25       0.2288
      4  O         33.9090   22.3650   76.4340 O.2    25  SER25      -0.2866
      5  CB        31.7180   20.7300   74.8470 C.3    25  SER25       0.2089
      6  OG        31.2320   20.0460   75.9890 O.3    25  SER25      -0.2183
      7  N         32.2370   20.9630   78.7240 N.3    27  PHE27      -0.1241
      8  CA        31.0710   21.6340   79.2910 C.3    27  PHE27       0.1605
      9  C         30.1890   20.5510   79.9070 C.2    27  PHE27       0.2264
     10  O         29.2380   20.0800   79.2840 O.2    27  PHE27      -0.2867
     11  CB        30.3140   22.3760   78.1830 C.3    27  PHE27       0.0534
     12  CG        29.1860   23.2280   78.6800 C.ar   27  PHE27      -0.0203
     13  CD1       29.4300   24.4970   79.2040 C.ar   27  PHE27      -0.0042
     14  CD2       27.8730   22.7650   78.6240 C.ar   27  PHE27      -0.0042
     15  CE1       28.3790   25.2950   79.6660 C.ar   27  PHE27      -0.0003
     16  CE2       26.8150   23.5530   79.0840 C.ar   27  PHE27      -0.0003
     17  CZ        27.0670   24.8190   79.6040 C.ar   27  PHE27      -0.0000
     18  N         27.3860   18.5360   82.0340 N.3    29  VAL29      -0.1245
     19  CA        25.9830   18.7550   82.3490 C.3    29  VAL29       0.1561
     20  C         25.3940   17.5480   83.0660 C.2    29  VAL29       0.2260
     21  O         25.6230   16.4020   82.6750 O.2    29  VAL29      -0.2867
     22  CB        25.1460   19.0300   81.0790 C.3    29  VAL29       0.0252
     23  CG1       23.6890   19.2680   81.4630 C.3    29  VAL29       0.0019
     24  CG2       25.6960   20.2390   80.3440 C.3    29  VAL29       0.0019
     25  N         25.7460   14.4340   80.1160 N.3    45  ASN45      -0.1240
     26  CA        25.9750   14.4570   78.6810 C.3    45  ASN45       0.1653
     27  C         27.1250   13.5030   78.3610 C.2    45  ASN45       0.2266
     28  O         28.0610   13.3710   79.1430 O.2    45  ASN45      -0.2867
     29  CB        26.2660   15.8920   78.1960 C.3    45  ASN45       0.1155
     30  CG        27.4260   16.5560   78.9290 C.2    45  ASN45       0.2627
     31  OD1       27.6230   16.3570   80.1290 O.2    45  ASN45      -0.2716
     32  ND2       28.1930   17.3690   78.2030 N.am   45  ASN45      -0.0877
     33  N         29.4520   12.8430   75.0560 N.3    47  GLU47      -0.1245
     34  CA        29.8360   13.2560   73.7140 C.3    47  GLU47       0.1567
     35  C         30.5140   12.1840   72.8670 C.2    47  GLU47       0.2260
     36  O         30.8260   11.0920   73.3490 O.2    47  GLU47      -0.2867
     37  CB        30.7220   14.5040   73.8100 C.3    47  GLU47       0.0388
     38  CG        30.1330   15.5550   74.7500 C.3    47  GLU47       0.1160
     39  CD        30.8930   16.8650   74.7540 C.2    47  GLU47       0.3649
     40  OE1       32.1400   16.8360   74.6750 O.co2  47  GLU47      -0.2457
     41  OE2       30.2380   17.9290   74.8540 O.co2  47  GLU47      -0.2457
     42  N         26.6260   12.5720   70.1300 N.3    54  GLY54      -0.1210
     43  CA        26.6130   12.7120   71.5740 C.3    54  GLY54       0.1956
     44  C         25.1750   12.7270   72.0680 C.2    54  GLY54       0.2612
     45  O         24.2390   12.7500   71.2650 O.2    54  GLY54      -0.2717
     46  N         24.9870   12.6960   73.3850 N.am   55  VAL55      -0.1965
     47  CA        23.6480   12.7430   73.9650 C.3    55  VAL55       0.1727
     48  C         23.6540   13.7010   75.1520 C.2    55  VAL55       0.2616
     49  O         24.6670   13.8240   75.8500 O.2    55  VAL55      -0.2715
     50  CB        23.1640   11.3410   74.4440 C.3    55  VAL55       0.0290
     51  CG1       24.0910   10.7880   75.5120 C.3    55  VAL55       0.0023
     52  CG2       21.7480   11.4500   75.0050 C.3    55  VAL55       0.0023
     53  N         22.5260   14.3720   75.3780 N.am   56  CYS56      -0.1954
     54  CA        22.4000   15.3230   76.4770 C.3    56  CYS56       0.1843
     55  C         22.0530   14.6260   77.7880 C.2    56  CYS56       0.2625
     56  O         21.4840   13.5360   77.7980 O.2    56  CYS56      -0.2714
     57  CB        21.3200   16.3710   76.1630 C.3    56  CYS56       0.0997
     58  SG        21.6160   17.3470   74.6620 S.3    56  CYS56      -0.0797
     59  N         22.3840   15.2790   78.8950 N.am   57  ALA57      -0.1963
     60  CA        22.1170   14.7370   80.2200 C.3    57  ALA57       0.1728
     61  C         20.6320   14.4350   80.4330 C.2    57  ALA57       0.2616
     62  O         20.2750   13.3880   80.9780 O.2    57  ALA57      -0.2715
     63  CB        22.6120   15.7150   81.2820 C.3    57  ALA57       0.0334
     64  N         19.7650   15.3440   79.9930 N.am   58  GLU58      -0.1977
     65  CA        18.3300   15.1540   80.1610 C.3    58  GLU58       0.1602
     66  C         17.8040   13.8780   79.5030 C.2    58  GLU58       0.2287
     67  O         16.9640   13.1910   80.0840 O.2    58  GLU58      -0.2864
     68  CB        17.5550   16.3630   79.6230 C.3    58  GLU58       0.0415
     69  CG        17.9540   17.6890   80.2450 C.3    58  GLU58       0.1163
     70  CD        18.9830   18.4280   79.4180 C.2    58  GLU58       0.3649
     71  OE1       18.6170   19.4250   78.7630 O.co2  58  GLU58      -0.2457
     72  OE2       20.1550   18.0090   79.4090 O.co2  58  GLU58      -0.2457
     73  N         18.3430   20.3060   85.8000 N.3    78  ILE78      -0.1245
     74  CA        19.5600   20.3340   84.9910 C.3    78  ILE78       0.1561
     75  C         20.6170   21.1990   85.6710 C.2    78  ILE78       0.2260
     76  O         20.3100   22.2850   86.1530 O.2    78  ILE78      -0.2867
     77  CB        19.2750   20.9320   83.5950 C.3    78  ILE78       0.0252
     78  CG1       17.9780   20.3420   83.0380 C.3    78  ILE78       0.0019
     79  CG2       20.4500   20.6550   82.6550 C.3    78  ILE78       0.0019
     80  CD1       17.4470   21.0820   81.8270 C.3    78  ILE78       0.0001
     81  N         20.9220   26.9770   83.2910 N.3    87  ILE87      -0.1231
     82  CA        21.0970   26.0140   82.2130 C.3    87  ILE87       0.1692
     83  C         19.7230   25.5410   81.7370 C.2    87  ILE87       0.2593
     84  O         18.9310   24.9850   82.5080 O.2    87  ILE87      -0.2718
     85  CB        21.9680   24.8100   82.6620 C.3    87  ILE87       0.0266
     86  CG1       22.2280   23.8950   81.4650 C.3    87  ILE87       0.0019
     87  CG2       21.3040   24.0500   83.8060 C.3    87  ILE87       0.0020
     88  CD1       23.0380   24.5490   80.3620 C.3    87  ILE87       0.0001
     89  N         19.4440   25.7850   80.4600 N.am   88  SER88      -0.1939
     90  CA        18.1640   25.4280   79.8590 C.3    88  SER88       0.2040
     91  C         18.2780   24.2270   78.9220 C.2    88  SER88       0.2485
     92  O         19.2920   24.0390   78.2570 O.2    88  SER88      -0.2729
     93  CB        17.6170   26.6360   79.0910 C.3    88  SER88       0.2129
     94  OG        16.4330   26.3130   78.3900 O.3    88  SER88      -0.2179
     95  N         17.2240   23.4050   78.8490 N.am   89  PRO89      -0.2715
     96  CA        17.2710   22.2340   77.9720 C.3    89  PRO89       0.1536
     97  C         17.1840   22.6000   76.4890 C.2    89  PRO89       0.2598
     98  O         16.4300   23.4990   76.1030 O.2    89  PRO89      -0.2715
     99  CB        16.0820   21.4080   78.4480 C.3    89  PRO89       0.0310
    100  CG        15.0830   22.4730   78.8150 C.3    89  PRO89       0.0237
    101  CD        15.9320   23.4870   79.5570 C.3    89  PRO89       0.0939
    102  N         17.9610   21.9050   75.6620 N.am   90  CYS90      -0.1968
    103  CA        17.9490   22.1680   74.2330 C.3    90  CYS90       0.1712
    104  C         16.5860   21.7540   73.7070 C.2    90  CYS90       0.2296
    105  O         15.7950   21.1300   74.4280 O.2    90  CYS90      -0.2864
    106  CB        19.0590   21.3890   73.5200 C.3    90  CYS90       0.0983
    107  SG        18.6590   19.7000   73.0060 S.3    90  CYS90      -0.0798
@<TRIPOS>BOND
     1    42    43    1
     2    45    44    2
     3    43    44    1
     4    44    46   am
     5    35    36    2
     6    35    34    1
     7   107   106    1
     8    46    47    1
     9   106   103    1
    10   104   103    1
    11   104   105    2
    12    34    37    1
    13    34    33    1
    14    37    38    1
    15    47    50    1
    16    47    48    1
    17   103   102    1
    18     1     2    1
    19    50    52    1
    20    50    51    1
    21    58    57    1
    22    40    39   ar
    23    38    39    1
    24    39    41   ar
    25     2     5    1
    26     2     3    1
    27     5     6    1
    28    48    53   am
    29    48    49    2
    30    53    54    1
    31   102    97   am
    32    98    97    2
    33    57    54    1
    34     3     4    2
    35    54    55    1
    36    97    96    1
    37    55    56    2
    38    55    59   am
    39    96    99    1
    40    96    95    1
    41    11    12    1
    42    11     8    1
    43    29    26    1
    44    29    30    1
    45    32    30   am
    46    92    91    2
    47    27    26    1
    48    27    28    2
    49    94    93    1
    50    99   100    1
    51    14    12   ar
    52    14    16   ar
    53    12    13   ar
    54    26    25    1
    55     7     8    1
    56    71    70   ar
    57   100   101    1
    58    95    91   am
    59    95   101    1
    60    59    60    1
    61    91    90    1
    62    30    31    2
    63    16    17   ar
    64    93    90    1
    65    13    15   ar
    66    10     9    2
    67     8     9    1
    68    72    70   ar
    69    70    69    1
    70    66    67    2
    71    66    65    1
    72    17    15   ar
    73    68    65    1
    74    68    69    1
    75    90    89    1
    76    64    65    1
    77    64    61   am
    78    60    61    1
    79    60    63    1
    80    24    22    1
    81    88    86    1
    82    61    62    2
    83    89    83   am
    84    22    23    1
    85    22    19    1
    86    86    85    1
    87    83    82    1
    88    83    84    2
    89    80    78    1
    90    18    19    1
    91    82    85    1
    92    82    81    1
    93    19    20    1
    94    79    77    1
    95    85    87    1
    96    21    20    2
    97    78    77    1
    98    77    74    1
    99    74    75    1
   100    74    73    1
   101    75    76    2
