@<TRIPOS>MOLECULE
tmp/2fraB00.pdb
 138 134 0 0 0
SMALL
GASTEIGER

@<TRIPOS>ATOM
      1  N         62.9920   48.0250  128.8810 N.3    20  GLN20      -0.1245
      2  CA        62.9400   47.2410  127.6540 C.3    20  GLN20       0.1566
      3  C         62.2960   47.9560  126.4670 C.2    20  GLN20       0.2260
      4  O         62.5100   47.5710  125.3160 O.2    20  GLN20      -0.2867
      5  CB        62.2110   45.9190  127.9120 C.3    20  GLN20       0.0367
      6  CG        60.7270   46.0550  128.2000 C.3    20  GLN20       0.0905
      7  CD        60.0790   44.7210  128.5350 C.2    20  GLN20       0.2608
      8  OE1       60.4500   44.0670  129.5070 O.2    20  GLN20      -0.2717
      9  NE2       59.1030   44.3140  127.7280 N.am   20  GLN20      -0.0878
     10  N         59.6840   43.1690  123.3830 N.3    24  GLY24      -0.1225
     11  CA        59.2820   42.1980  124.3910 C.3    24  GLY24       0.1811
     12  C         60.4340   41.3270  124.8600 C.2    24  GLY24       0.2280
     13  O         60.4350   40.1100  124.6540 O.2    24  GLY24      -0.2866
     14  N         61.3860   41.0030  128.0920 N.3    26  CYS26      -0.1221
     15  CA        61.2610   40.7690  129.5300 C.3    26  CYS26       0.1808
     16  C         62.0000   39.5000  129.9540 C.2    26  CYS26       0.2601
     17  O         62.6720   39.4770  130.9840 O.2    26  CYS26      -0.2717
     18  CB        59.7870   40.6560  129.9390 C.3    26  CYS26       0.0970
     19  SG        58.8650   39.3000  129.1380 S.3    26  CYS26      -0.0800
     20  N         61.8650   38.4480  129.1530 N.am   27  TRP27      -0.1976
     21  CA        62.5110   37.1690  129.4360 C.3    27  TRP27       0.1640
     22  C         64.0320   37.3010  129.5170 C.2    27  TRP27       0.2290
     23  O         64.6650   36.6980  130.3840 O.2    27  TRP27      -0.2864
     24  CB        62.1540   36.1470  128.3520 C.3    27  TRP27       0.0576
     25  CG        62.5150   36.5850  126.9590 C.ar   27  TRP27       0.0006
     26  CD1       61.8240   37.4600  126.1660 C.ar   27  TRP27       0.0946
     27  CD2       63.6590   36.1730  126.2010 C.ar   27  TRP27       0.0152
     28  NE1       62.4650   37.6150  124.9590 N.ar   27  TRP27      -0.2442
     29  CE2       63.5950   36.8370  124.9540 C.ar   27  TRP27       0.0810
     30  CE3       64.7330   35.3060  126.4520 C.ar   27  TRP27       0.0012
     31  CZ2       64.5650   36.6610  123.9580 C.ar   27  TRP27       0.0191
     32  CZ3       65.7010   35.1310  125.4560 C.ar   27  TRP27       0.0001
     33  CH2       65.6060   35.8070  124.2270 C.ar   27  TRP27       0.0015
     34  N         63.7670   28.1820  120.9610 N.3    63  GLY63      -0.1225
     35  CA        62.3380   28.4410  121.0450 C.3    63  GLY63       0.1811
     36  C         61.9790   29.8710  121.4000 C.2    63  GLY63       0.2280
     37  O         60.8690   30.1450  121.8550 O.2    63  GLY63      -0.2866
     38  N         61.7170   34.1620  120.4480 N.3    65  LYS65      -0.1245
     39  CA        61.3830   35.0480  119.3370 C.3    65  LYS65       0.1561
     40  C         61.8110   36.4920  119.5820 C.2    65  LYS65       0.2260
     41  O         61.0950   37.4240  119.2300 O.2    65  LYS65      -0.2867
     42  CB        59.8790   34.9940  119.0640 C.3    65  LYS65       0.0271
     43  CG        59.3720   33.5860  118.7740 C.3    65  LYS65       0.0035
     44  CD        57.8740   33.5670  118.5320 C.3    65  LYS65       0.0206
     45  CE        57.3980   32.1510  118.3090 C.3    65  LYS65       0.1093
     46  NZ        58.2370   31.4840  117.2760 N.3    65  LYS65      -0.1314
     47  N         62.2690   40.0710  120.3290 N.3    67  CYS67      -0.1221
     48  CA        61.3620   41.1060  120.8160 C.3    67  CYS67       0.1808
     49  C         59.9220   40.6560  120.8680 C.2    67  CYS67       0.2601
     50  O         59.0450   41.4230  121.2580 O.2    67  CYS67      -0.2717
     51  CB        61.4650   42.3800  119.9700 C.3    67  CYS67       0.0970
     52  SG        63.0200   43.2860  120.2210 S.3    67  CYS67      -0.0800
     53  N         59.6720   39.4170  120.4630 N.am   68  ASN68      -0.1960
     54  CA        58.3240   38.8840  120.5140 C.3    68  ASN68       0.1819
     55  C         58.1770   37.8520  121.6300 C.2    68  ASN68       0.2622
     56  O         57.1680   37.1500  121.7090 O.2    68  ASN68      -0.2715
     57  CB        57.9180   38.2900  119.1620 C.3    68  ASN68       0.1195
     58  CG        57.4330   39.3490  118.1900 C.2    68  ASN68       0.2630
     59  OD1       56.4940   40.0880  118.4840 O.2    68  ASN68      -0.2716
     60  ND2       58.0710   39.4300  117.0290 N.am   68  ASN68      -0.0877
     61  N         59.1870   37.7650  122.4920 N.am   69  GLY69      -0.1940
     62  CA        59.1100   36.8420  123.6140 C.3    69  GLY69       0.2014
     63  C         60.1000   35.6950  123.6450 C.2    69  GLY69       0.2639
     64  O         60.7120   35.3550  122.6330 O.2    69  GLY69      -0.2714
     65  N         60.2350   35.0840  124.8210 N.am   70  GLY70      -0.1939
     66  CA        61.1570   33.9720  124.9890 C.3    70  GLY70       0.2014
     67  C         61.0830   33.3540  126.3760 C.2    70  GLY70       0.2639
     68  O         60.2780   33.7790  127.2110 O.2    70  GLY70      -0.2714
     69  N         61.9180   32.3460  126.6220 N.am   71  PHE71      -0.1959
     70  CA        61.9560   31.6510  127.9120 C.3    71  PHE71       0.1771
     71  C         63.2330   31.9880  128.6760 C.2    71  PHE71       0.2619
     72  O         64.2990   32.1450  128.0740 O.2    71  PHE71      -0.2715
     73  CB        61.9270   30.1260  127.7190 C.3    71  PHE71       0.0574
     74  CG        60.7030   29.6130  127.0150 C.ar   71  PHE71      -0.0200
     75  CD1       60.7550   29.2480  125.6730 C.ar   71  PHE71      -0.0042
     76  CD2       59.5010   29.4730  127.7000 C.ar   71  PHE71      -0.0042
     77  CE1       59.6310   28.7490  125.0220 C.ar   71  PHE71      -0.0003
     78  CE2       58.3650   28.9740  127.0590 C.ar   71  PHE71      -0.0003
     79  CZ        58.4320   28.6120  125.7170 C.ar   71  PHE71      -0.0000
     80  N         63.1390   32.0890  129.9980 N.am   72  MET72      -0.1963
     81  CA        64.3360   32.3740  130.7760 C.3    72  MET72       0.1736
     82  C         65.2030   31.1180  130.8510 C.2    72  MET72       0.2617
     83  O         66.4340   31.2020  130.8340 O.2    72  MET72      -0.2715
     84  CB        63.9830   32.8390  132.1960 C.3    72  MET72       0.0427
     85  CG        63.3490   34.2260  132.2770 C.3    72  MET72       0.0599
     86  SD        61.5870   34.2000  131.9450 S.3    72  MET72      -0.1393
     87  CE        60.9790   33.7480  133.6060 C.3    72  MET72       0.0692
     88  N         64.5730   29.9480  130.9290 N.am   73  THR73      -0.1951
     89  CA        65.3430   28.7140  131.0170 C.3    73  THR73       0.1897
     90  C         66.1530   28.4660  129.7490 C.2    73  THR73       0.2313
     91  O         67.3240   28.1010  129.8240 O.2    73  THR73      -0.2863
     92  CB        64.4400   27.4660  131.3150 C.3    73  THR73       0.1794
     93  OG1       63.4470   27.3180  130.2940 O.3    73  THR73      -0.2208
     94  CG2       63.7470   27.6220  132.6740 C.3    73  THR73       0.0378
     95  N         57.8560   33.7830  135.9850 N.3   138  GLY138     -0.1225
     96  CA        56.8930   34.2930  135.0320 C.3   138  GLY138      0.1811
     97  C         55.6700   34.6710  135.8450 C.2   138  GLY138      0.2280
     98  O         55.3660   34.0120  136.8430 O.2   138  GLY138     -0.2866
     99  N         50.9220   32.6410  133.1820 N.3   163  VAL163     -0.1231
    100  CA        51.9740   33.6510  133.1180 C.3   163  VAL163      0.1692
    101  C         52.3170   34.0770  131.6970 C.2   163  VAL163      0.2592
    102  O         52.2240   33.2830  130.7580 O.2   163  VAL163     -0.2718
    103  CB        53.2460   33.1620  133.8170 C.3   163  VAL163      0.0266
    104  CG1       52.9200   32.7710  135.2530 C.3   163  VAL163      0.0020
    105  CG2       53.8410   31.9860  133.0720 C.3   163  VAL163      0.0020
    106  N         52.7520   35.3250  131.5490 N.am  164  ASN164     -0.1960
    107  CA        53.0650   35.8720  130.2300 C.3   164  ASN164      0.1819
    108  C         54.1590   36.9380  130.3050 C.2   164  ASN164      0.2621
    109  O         54.5670   37.4820  129.2800 O.2   164  ASN164     -0.2715
    110  CB        51.7970   36.5070  129.6800 C.3   164  ASN164      0.1195
    111  CG        51.1040   37.3700  130.7190 C.2   164  ASN164      0.2630
    112  OD1       51.6160   38.4120  131.1270 O.2   164  ASN164     -0.2716
    113  ND2       49.9480   36.9230  131.1720 N.am  164  ASN164     -0.0877
    114  N         54.6140   37.2470  131.5170 N.am  165  HIS165     -0.1959
    115  CA        55.6330   38.2710  131.7050 C.3   165  HIS165      0.1787
    116  C         56.7710   37.7820  132.5910 C.2   165  HIS165      0.2620
    117  O         56.5480   37.3780  133.7330 O.2   165  HIS165     -0.2715
    118  CB        54.9910   39.5230  132.3180 C.3   165  HIS165      0.0785
    119  CG        55.9190   40.6940  132.4140 C.ar  165  HIS165      0.0821
    120  ND1       56.5950   41.1950  131.3230 N.ar  165  HIS165     -0.2267
    121  CD2       56.2770   41.4630  133.4680 C.ar  165  HIS165      0.1154
    122  CE1       57.3320   42.2250  131.7010 C.ar  165  HIS165      0.1986
    123  NE2       57.1580   42.4080  132.9960 N.ar  165  HIS165     -0.2212
    124  N         57.9880   37.8210  132.0580 N.am  166  GLY166     -0.1954
    125  CA        59.1440   37.3720  132.8190 C.3   166  GLY166      0.1869
    126  C         59.7770   38.4640  133.6620 C.2   166  GLY166      0.2309
    127  O         60.1460   39.5170  133.1450 O.2   166  GLY166     -0.2863
    128  N         56.5230   28.9800  137.4630 N.3   212  PHE212     -0.1241
    129  CA        57.7320   28.5020  136.8030 C.3   212  PHE212      0.1605
    130  C         58.9890   29.2670  137.1780 C.2   212  PHE212      0.2264
    131  O         59.4900   30.0780  136.3970 O.2   212  PHE212     -0.2867
    132  CB        57.5660   28.5420  135.2870 C.3   212  PHE212      0.0534
    133  CG        56.3520   27.8150  134.7840 C.ar  212  PHE212     -0.0203
    134  CD1       55.1380   28.4790  134.6540 C.ar  212  PHE212     -0.0042
    135  CD2       56.4290   26.4770  134.4060 C.ar  212  PHE212     -0.0042
    136  CE1       54.0230   27.8350  134.1430 C.ar  212  PHE212     -0.0003
    137  CE2       55.3100   25.8190  133.8920 C.ar  212  PHE212     -0.0003
    138  CZ        54.1060   26.5010  133.7640 C.ar  212  PHE212     -0.0000
@<TRIPOS>BOND
     1    60    58   am
     2    46    45    1
     3    58    59    2
     4    58    57    1
     5    45    44    1
     6    44    43    1
     7    43    42    1
     8    42    39    1
     9    57    54    1
    10    41    40    2
    11    39    40    1
    12    39    38    1
    13    51    52    1
    14    51    48    1
    15    47    48    1
    16    53    54    1
    17    53    49   am
    18    54    55    1
    19    48    49    1
    20    49    50    2
    21    34    35    1
    22    35    36    1
    23    36    37    2
    24    55    56    2
    25    55    61   am
    26    61    62    1
    27    64    63    2
    28    10    11    1
    29    62    63    1
    30    63    65   am
    31    31    33   ar
    32    31    29   ar
    33    33    32   ar
    34    11    12    1
    35    13    12    2
    36    65    66    1
    37    29    28   ar
    38    29    27   ar
    39    28    26   ar
    40    66    67    1
    41    77    75   ar
    42    77    79   ar
    43     4     3    2
    44    32    30   ar
    45    75    74   ar
    46    79    78   ar
    47    26    25   ar
    48    27    30   ar
    49    27    25   ar
    50    67    69   am
    51    67    68    2
    52     3     2    1
    53    69    70    1
    54    25    24    1
    55    74    76   ar
    56    74    73    1
    57    78    76   ar
    58     2     5    1
    59     2     1    1
    60    73    70    1
    61     9     7   am
    62     5     6    1
    63    70    71    1
    64    72    71    2
    65    14    15    1
    66     6     7    1
    67    24    21    1
    68     7     8    2
    69    71    80   am
    70    19    18    1
    71    20    21    1
    72    20    16   am
    73   109   108    2
    74    21    22    1
    75    22    23    2
    76    15    18    1
    77    15    16    1
    78   110   107    1
    79   110   111    1
    80    90    91    2
    81    90    89    1
    82    16    17    2
    83    80    81    1
    84   107   108    1
    85   107   106    1
    86    93    92    1
    87   108   114   am
    88   111   112    2
    89   111   113   am
    90   102   101    2
    91    81    82    1
    92    81    84    1
    93    83    82    2
    94    82    88   am
    95    88    89    1
    96    89    92    1
    97    92    94    1
    98   120   122   ar
    99   120   119   ar
   100   114   115    1
   101   106   101   am
   102   101   100    1
   103   122   123   ar
   104   115   118    1
   105   115   116    1
   106    86    85    1
   107    86    87    1
   108   124   116   am
   109   124   125    1
   110    84    85    1
   111   118   119    1
   112   119   121   ar
   113   116   117    2
   114   125   126    1
   115   123   121   ar
   116   105   103    1
   117   100    99    1
   118   100   103    1
   119   127   126    2
   120   138   137   ar
   121   138   136   ar
   122   103   104    1
   123   137   135   ar
   124   136   134   ar
   125   135   133   ar
   126   134   133   ar
   127   133   132    1
   128    96    97    1
   129    96    95    1
   130   132   129    1
   131    97    98    2
   132   131   130    2
   133   129   130    1
   134   129   128    1
