@<TRIPOS>MOLECULE
tmp/2freA01.pdb
 77 78 0 0 0
SMALL
GASTEIGER

@<TRIPOS>ATOM
      1  N         15.1900   11.6250   34.0300 N.3    43  TRP43      -0.1227
      2  CA        15.2130   12.6410   32.9680 C.3    43  TRP43       0.1737
      3  C         16.5640   13.3550   32.8040 C.2    43  TRP43       0.2595
      4  O         16.6940   14.2770   31.9850 O.2    43  TRP43      -0.2718
      5  CB        14.0770   13.6630   33.1450 C.3    43  TRP43       0.0564
      6  CG        12.8420   13.1890   32.5410 C.ar   43  TRP43       0.0003
      7  CD1       11.7420   12.6950   33.1770 C.ar   43  TRP43       0.0946
      8  CD2       12.5670   13.1220   31.1480 C.ar   43  TRP43       0.0152
      9  NE1       10.7920   12.3320   32.2630 N.ar   43  TRP43      -0.2442
     10  CE2       11.2760   12.5780   31.0040 C.ar   43  TRP43       0.0810
     11  CE3       13.2860   13.4810   29.9990 C.ar   43  TRP43       0.0012
     12  CZ2       10.6920   12.3760   29.7610 C.ar   43  TRP43       0.0191
     13  CZ3       12.7060   13.2650   28.7610 C.ar   43  TRP43       0.0001
     14  CH2       11.4200   12.7260   28.6560 C.ar   43  TRP43       0.0015
     15  N         17.5810   12.9210   33.5480 N.am   44  ALA44      -0.1966
     16  CA        18.8750   13.5580   33.4780 C.3    44  ALA44       0.1713
     17  C         19.5210   13.3500   32.1160 C.2    44  ALA44       0.2458
     18  O         19.2230   12.3760   31.4320 O.2    44  ALA44      -0.2730
     19  CB        19.7890   13.0410   34.6010 C.3    44  ALA44       0.0333
     20  N         20.4450   14.2550   31.7290 N.am   45  PRO45      -0.2716
     21  CA        21.2020   13.9790   30.5140 C.3    45  PRO45       0.1536
     22  C         22.2640   12.9240   30.7740 C.2    45  PRO45       0.2599
     23  O         22.6620   12.6910   31.9430 O.2    45  PRO45      -0.2715
     24  CB        21.8510   15.3170   30.1970 C.3    45  PRO45       0.0310
     25  CG        22.0950   15.9140   31.6020 C.3    45  PRO45       0.0237
     26  CD        20.8660   15.5190   32.3710 C.3    45  PRO45       0.0939
     27  N         22.7130   12.2880   29.6900 N.am   46  SER46      -0.1936
     28  CA        23.7630   11.3010   29.7610 C.3    46  SER46       0.2055
     29  C         24.3950   11.1690   28.3920 C.2    46  SER46       0.2643
     30  O         23.7430   11.3910   27.3870 O.2    46  SER46      -0.2714
     31  CB        23.2370    9.9340   30.2090 C.3    46  SER46       0.2130
     32  OG        22.2200    9.4500   29.3350 O.3    46  SER46      -0.2179
     33  N         25.6640   10.8010   28.3640 N.am   47  ALA47      -0.1963
     34  CA        26.3360   10.5490   27.0970 C.3    47  ALA47       0.1728
     35  C         25.5250    9.5590   26.2640 C.2    47  ALA47       0.2617
     36  O         25.0620    8.5140   26.7500 O.2    47  ALA47      -0.2715
     37  CB        27.7650   10.0340   27.3000 C.3    47  ALA47       0.0334
     38  N         25.3270    9.9270   25.0040 N.am   48  SER48      -0.1936
     39  CA        24.5820    9.1070   24.0230 C.3    48  SER48       0.2055
     40  C         23.1490    8.7550   24.4240 C.2    48  SER48       0.2643
     41  O         22.5530    7.8300   23.8620 O.2    48  SER48      -0.2714
     42  CB        25.3830    7.8600   23.6940 C.3    48  SER48       0.2130
     43  OG        26.6320    8.2400   23.1260 O.3    48  SER48      -0.2179
     44  N         22.5910    9.5010   25.3780 N.am   49  ASN49      -0.1971
     45  CA        21.3140    9.1400   25.9980 C.3    49  ASN49       0.1688
     46  C         21.2630    7.6760   26.4460 C.2    49  ASN49       0.2292
     47  O         20.2100    7.0430   26.3910 O.2    49  ASN49      -0.2864
     48  CB        20.1400    9.4160   25.0490 C.3    49  ASN49       0.1181
     49  CG        18.8090    9.5100   25.7730 C.2    49  ASN49       0.2629
     50  OD1       18.7560    9.9640   26.9050 O.2    49  ASN49      -0.2716
     51  ND2       17.7160    9.1290   25.0950 N.am   49  ASN49      -0.0877
     52  N         31.6850    7.7520   31.0010 N.3   106  THR106     -0.1218
     53  CA        30.9030    8.7660   31.7250 C.3   106  THR106      0.1862
     54  C         29.8410    8.2340   32.6940 C.2   106  THR106      0.2287
     55  O         29.0730    9.0350   33.2710 O.2   106  THR106     -0.2866
     56  CB        30.1710    9.6780   30.7170 C.3   106  THR106      0.1770
     57  OG1       29.1990    8.9060   30.0050 O.3   106  THR106     -0.2211
     58  CG2       31.1680   10.2960   29.7330 C.3   106  THR106      0.0375
     59  N         29.7530    9.8520   36.2560 N.3   109  PHE109     -0.1227
     60  CA        29.4300   11.2450   36.0220 C.3   109  PHE109      0.1736
     61  C         27.9260   11.4100   35.7380 C.2   109  PHE109      0.2595
     62  O         27.2130   12.2490   36.3500 O.2   109  PHE109     -0.2718
     63  CB        30.3340   11.7420   34.8770 C.3   109  PHE109      0.0547
     64  CG        30.1590   13.2010   34.5220 C.ar  109  PHE109     -0.0202
     65  CD1       30.8050   14.1690   35.2430 C.ar  109  PHE109     -0.0042
     66  CD2       29.3630   13.5860   33.4420 C.ar  109  PHE109     -0.0042
     67  CE1       30.6850   15.5160   34.8940 C.ar  109  PHE109     -0.0003
     68  CE2       29.2220   14.9260   33.1100 C.ar  109  PHE109     -0.0003
     69  CZ        29.8810   15.8880   33.8440 C.ar  109  PHE109     -0.0000
     70  N         27.4260   10.5970   34.8130 N.am  110  ASP110     -0.1974
     71  CA        26.0460   10.6850   34.3910 C.3   110  ASP110      0.1709
     72  C         25.0860   10.2990   35.5370 C.2   110  ASP110      0.2293
     73  O         24.0810   10.9440   35.7610 O.2   110  ASP110     -0.2864
     74  CB        25.8270    9.7820   33.1640 C.3   110  ASP110      0.1436
     75  CG        26.4080   10.3790   31.8460 C.2   110  ASP110      0.3671
     76  OD1       26.6400   11.6050   31.7500 O.co2 110  ASP110     -0.2456
     77  OD2       26.6080    9.6010   30.8790 O.co2 110  ASP110     -0.2456
@<TRIPOS>BOND
     1    43    42    1
     2    42    39    1
     3    41    40    2
     4    39    40    1
     5    39    38    1
     6    40    44   am
     7    38    35   am
     8    48    49    1
     9    48    45    1
    10    51    49   am
    11    44    45    1
    12    49    50    2
    13    45    46    1
    14    35    36    2
    15    35    34    1
    16    47    46    2
    17    34    37    1
    18    34    33    1
    19    30    29    2
    20    33    29   am
    21    29    28    1
    22    14    13   ar
    23    14    12   ar
    24    13    11   ar
    25    32    31    1
    26    27    28    1
    27    27    22   am
    28    58    56    1
    29    28    31    1
    30    12    10   ar
    31    11     8   ar
    32    57    56    1
    33    24    21    1
    34    24    25    1
    35    21    22    1
    36    21    20    1
    37    56    53    1
    38    22    23    2
    39    77    75   ar
    40    52    53    1
    41    10     8   ar
    42    10     9   ar
    43     8     6   ar
    44    18    17    2
    45    25    26    1
    46    53    54    1
    47    20    17   am
    48    20    26    1
    49    76    75   ar
    50    75    74    1
    51     4     3    2
    52    17    16    1
    53     9     7   ar
    54     6     5    1
    55     6     7   ar
    56    54    55    2
    57     3     2    1
    58     3    15   am
    59     2     5    1
    60     2     1    1
    61    68    66   ar
    62    68    69   ar
    63    74    71    1
    64    66    64   ar
    65    16    15    1
    66    16    19    1
    67    69    67   ar
    68    71    70    1
    69    71    72    1
    70    64    63    1
    71    64    65   ar
    72    70    61   am
    73    63    60    1
    74    67    65   ar
    75    72    73    2
    76    61    60    1
    77    61    62    2
    78    60    59    1
