@<TRIPOS>MOLECULE
tmp/2freA00.pdb
 142 138 0 0 0
SMALL
GASTEIGER

@<TRIPOS>ATOM
      1  N         22.9950   30.3940   54.0410 N.3     6  ARG6       -0.1245
      2  CA        24.0550   30.4150   53.0430 C.3     6  ARG6        0.1563
      3  C         23.9760   31.6830   52.2100 C.2     6  ARG6        0.2260
      4  O         22.9030   32.2230   51.9700 O.2     6  ARG6       -0.2867
      5  CB        23.9580   29.2120   52.0970 C.3     6  ARG6        0.0307
      6  CG        24.1860   27.8840   52.7360 C.3     6  ARG6        0.0489
      7  CD        23.6500   26.7490   51.8440 C.3     6  ARG6        0.2205
      8  NE        24.2560   25.4650   52.1970 N.pl3   6  ARG6       -0.0865
      9  CZ        23.9520   24.2920   51.6360 C.cat   6  ARG6        0.5346
     10  NH1       22.9910   24.1870   50.7260 N.pl3   6  ARG6        0.1354
     11  NH2       24.6140   23.2050   51.9920 N.pl3   6  ARG6        0.1354
     12  N         18.5560   23.5340   48.8930 N.3    19  ARG19      -0.1231
     13  CA        18.8050   22.0850   48.9180 C.3    19  ARG19       0.1694
     14  C         19.9760   21.7640   49.8420 C.2    19  ARG19       0.2592
     15  O         21.0640   22.2870   49.6520 O.2    19  ARG19      -0.2718
     16  CB        19.1330   21.5540   47.5380 C.3    19  ARG19       0.0321
     17  CG        19.4190   20.0560   47.4850 C.3    19  ARG19       0.0489
     18  CD        20.5320   19.7140   46.5660 C.3    19  ARG19       0.2205
     19  NE        21.7820   20.4190   46.8350 N.pl3  19  ARG19      -0.0865
     20  CZ        22.6260   20.1400   47.8200 C.cat  19  ARG19       0.5346
     21  NH1       22.3720   19.1770   48.6930 N.pl3  19  ARG19       0.1354
     22  NH2       23.7310   20.8660   47.9430 N.pl3  19  ARG19       0.1354
     23  N         19.7630   20.8780   50.8110 N.am   20  TRP20      -0.1962
     24  CA        20.8450   20.4680   51.7050 C.3    20  TRP20       0.1771
     25  C         20.5900   19.1040   52.2960 C.2    20  TRP20       0.2620
     26  O         19.5600   18.5000   52.0360 O.2    20  TRP20      -0.2715
     27  CB        21.1070   21.4980   52.8060 C.3    20  TRP20       0.0590
     28  CG        20.1000   21.6040   53.8990 C.ar   20  TRP20       0.0006
     29  CD1       18.8110   22.0230   53.7840 C.ar   20  TRP20       0.0946
     30  CD2       20.3260   21.3880   55.2920 C.ar   20  TRP20       0.0152
     31  NE1       18.2050   22.0570   55.0080 N.ar   20  TRP20      -0.2442
     32  CE2       19.1140   21.6660   55.9600 C.ar   20  TRP20       0.0810
     33  CE3       21.4310   20.9720   56.0430 C.ar   20  TRP20       0.0012
     34  CZ2       18.9880   21.5680   57.3300 C.ar   20  TRP20       0.0191
     35  CZ3       21.3000   20.8600   57.4090 C.ar   20  TRP20       0.0001
     36  CH2       20.0860   21.1480   58.0420 C.ar   20  TRP20       0.0015
     37  N         21.5580   18.6040   53.0590 N.am   21  SER21      -0.1950
     38  CA        21.5570   17.1990   53.4620 C.3    21  SER21       0.1924
     39  C         21.6020   17.0870   54.9920 C.2    21  SER21       0.2314
     40  O         22.6340   16.8100   55.5830 O.2    21  SER21      -0.2863
     41  CB        22.7000   16.4600   52.7640 C.3    21  SER21       0.2116
     42  OG        22.6010   16.6430   51.3390 O.3    21  SER21      -0.2180
     43  N         20.3070   15.3170   58.7170 N.3    23  ARG23      -0.1245
     44  CA        20.2650   13.9430   59.2200 C.3    23  ARG23       0.1563
     45  C         19.0580   13.6620   60.1220 C.2    23  ARG23       0.2260
     46  O         18.8010   12.4950   60.4220 O.2    23  ARG23      -0.2867
     47  CB        21.5610   13.6160   59.9870 C.3    23  ARG23       0.0307
     48  CG        22.7720   13.5940   59.0950 C.3    23  ARG23       0.0489
     49  CD        24.0360   13.2640   59.8040 C.3    23  ARG23       0.2205
     50  NE        25.1230   13.3370   58.8460 N.pl3  23  ARG23      -0.0865
     51  CZ        25.7660   14.4500   58.5010 C.cat  23  ARG23       0.5346
     52  NH1       25.4910   15.6020   59.0960 N.pl3  23  ARG23       0.1354
     53  NH2       26.7120   14.4040   57.5710 N.pl3  23  ARG23       0.1354
     54  N         26.2890    5.8550   59.7040 N.3    75  ASN75      -0.1240
     55  CA        25.1430    6.2960   58.9080 C.3    75  ASN75       0.1653
     56  C         23.8270    5.6770   59.3720 C.2    75  ASN75       0.2266
     57  O         22.7990    6.3560   59.3700 O.2    75  ASN75      -0.2867
     58  CB        25.3410    6.0020   57.4160 C.3    75  ASN75       0.1155
     59  CG        26.3560    6.9210   56.7550 C.2    75  ASN75       0.2627
     60  OD1       27.0370    6.5200   55.7940 O.2    75  ASN75      -0.2716
     61  ND2       26.4470    8.1540   57.2330 N.am   75  ASN75      -0.0877
     62  N         21.2680    7.5350   62.0070 N.3    78  TRP78      -0.1241
     63  CA        20.3010    8.5660   61.6230 C.3    78  TRP78       0.1605
     64  C         19.4650    8.1610   60.4210 C.2    78  TRP78       0.2264
     65  O         18.2880    8.4880   60.3640 O.2    78  TRP78      -0.2867
     66  CB        21.0040    9.9200   61.3630 C.3    78  TRP78       0.0550
     67  CG        22.0960    9.8690   60.3590 C.ar   78  TRP78       0.0003
     68  CD1       23.4180    9.6300   60.6010 C.ar   78  TRP78       0.0946
     69  CD2       21.9740   10.0570   58.9530 C.ar   78  TRP78       0.0152
     70  NE1       24.1250    9.6610   59.4410 N.ar   78  TRP78      -0.2442
     71  CE2       23.2690    9.9110   58.4040 C.ar   78  TRP78       0.0810
     72  CE3       20.9000   10.3190   58.0970 C.ar   78  TRP78       0.0012
     73  CZ2       23.5190   10.0170   57.0430 C.ar   78  TRP78       0.0191
     74  CZ3       21.1500   10.4280   56.7330 C.ar   78  TRP78       0.0001
     75  CH2       22.4460   10.2650   56.2190 C.ar   78  TRP78       0.0015
     76  N         21.4910   11.7890   40.2180 N.3   115  TRP115     -0.1241
     77  CA        21.4160   11.9760   41.6540 C.3   115  TRP115      0.1605
     78  C         21.0870   13.4160   42.0390 C.2   115  TRP115      0.2264
     79  O         20.2260   13.6250   42.9030 O.2   115  TRP115     -0.2867
     80  CB        22.6880   11.4740   42.3310 C.3   115  TRP115      0.0550
     81  CG        23.2290   12.3200   43.4380 C.ar  115  TRP115      0.0003
     82  CD1       24.4080   12.9980   43.4280 C.ar  115  TRP115      0.0946
     83  CD2       22.6530   12.5160   44.7350 C.ar  115  TRP115      0.0152
     84  NE1       24.5990   13.6360   44.6520 N.ar  115  TRP115     -0.2442
     85  CE2       23.5300   13.3590   45.4610 C.ar  115  TRP115      0.0810
     86  CE3       21.4700   12.0830   45.3470 C.ar  115  TRP115      0.0012
     87  CZ2       23.2610   13.7780   46.7700 C.ar  115  TRP115      0.0191
     88  CZ3       21.1960   12.4920   46.6580 C.ar  115  TRP115      0.0001
     89  CH2       22.0990   13.3400   47.3560 C.ar  115  TRP115      0.0015
     90  N         19.8180   12.7550   51.1590 N.3   129  HIS129     -0.1226
     91  CA        21.1490   12.7870   51.7800 C.3   129  HIS129      0.1752
     92  C         21.9640   11.6330   51.2140 C.2   129  HIS129      0.2596
     93  O         21.6190   10.4630   51.3940 O.2   129  HIS129     -0.2718
     94  CB        21.0020   12.6860   53.2880 C.3   129  HIS129      0.0759
     95  CG        22.2340   13.0410   54.0670 C.ar  129  HIS129      0.0818
     96  ND1       23.5020   12.6200   53.7210 N.ar  129  HIS129     -0.2268
     97  CD2       22.3760   13.7330   55.2170 C.ar  129  HIS129      0.1154
     98  CE1       24.3700   13.0530   54.6260 C.ar  129  HIS129      0.1986
     99  NE2       23.7130   13.7360   55.5370 N.ar  129  HIS129     -0.2212
    100  N         23.0210   11.9720   50.4850 N.am  130  GLY130     -0.1957
    101  CA        23.8700   10.9840   49.8450 C.3   130  GLY130      0.1869
    102  C         24.7650   10.2960   50.8520 C.2   130  GLY130      0.2309
    103  O         25.1370   10.9000   51.8640 O.2   130  GLY130     -0.2863
    104  N         28.2520    7.5200   51.0560 N.3   131  GLY131     -0.1210
    105  CA        29.2730    6.5820   50.5980 C.3   131  GLY131      0.1956
    106  C         29.7050    5.6010   51.6740 C.2   131  GLY131      0.2612
    107  O         30.3690    4.5980   51.3700 O.2   131  GLY131     -0.2717
    108  N         29.3260    5.8700   52.9240 N.am  132  GLY132     -0.1956
    109  CA        29.5870    4.9810   54.0440 C.3   132  GLY132      0.1869
    110  C         28.6210    3.8030   54.0120 C.2   132  GLY132      0.2309
    111  O         27.6770    3.7320   54.7910 O.2   132  GLY132     -0.2863
    112  N         27.1760    3.4050   43.1950 N.3   151  GLU151     -0.1231
    113  CA        27.6970    4.7550   43.2920 C.3   151  GLU151      0.1699
    114  C         27.5150    5.3150   44.6860 C.2   151  GLU151      0.2592
    115  O         28.4670    5.8250   45.2710 O.2   151  GLU151     -0.2718
    116  CB        26.9800    5.6820   42.2990 C.3   151  GLU151      0.0402
    117  CG        27.1260    5.2660   40.8260 C.3   151  GLU151      0.1161
    118  CD        28.5410    5.4030   40.3080 C.2   151  GLU151      0.3649
    119  OE1       29.3670    6.0480   40.9900 O.co2 151  GLU151     -0.2457
    120  OE2       28.8300    4.8930   39.2100 O.co2 151  GLU151     -0.2457
    121  N         26.2900    5.2540   45.2080 N.am  152  ALA152     -0.1980
    122  CA        25.9860    5.8520   46.5050 C.3   152  ALA152      0.1597
    123  C         24.6560    5.3690   47.0820 C.2   152  ALA152      0.2287
    124  O         23.7800    4.9160   46.3540 O.2   152  ALA152     -0.2864
    125  CB        25.9800    7.3730   46.3850 C.3   152  ALA152      0.0319
    126  N         26.0890   23.1750   55.1170 N.3   176  SER176     -0.1217
    127  CA        27.4920   23.3280   54.8190 C.3   176  SER176      0.1889
    128  C         27.7620   24.5380   53.9350 C.2   176  SER176      0.2288
    129  O         26.8710   25.0470   53.2270 O.2   176  SER176     -0.2866
    130  CB        27.9970   22.0630   54.1160 C.3   176  SER176      0.2089
    131  OG        27.1980   21.8050   52.9750 O.3   176  SER176     -0.2183
    132  N         30.7890   26.4120   51.0720 N.3   178  ARG178     -0.1245
    133  CA        31.6190   26.0460   49.9000 C.3   178  ARG178      0.1563
    134  C         32.8110   26.9600   49.8310 C.2   178  ARG178      0.2260
    135  O         32.8220   28.0310   50.4520 O.2   178  ARG178     -0.2867
    136  CB        30.8150   26.1640   48.6050 C.3   178  ARG178      0.0307
    137  CG        29.6580   25.2190   48.5000 C.3   178  ARG178      0.0489
    138  CD        30.0410   23.7470   48.3910 C.3   178  ARG178      0.2205
    139  NE        28.8140   22.9670   48.2380 N.pl3 178  ARG178     -0.0865
    140  CZ        28.0090   22.6010   49.2360 C.cat 178  ARG178      0.5346
    141  NH1       28.3210   22.8240   50.4950 N.pl3 178  ARG178      0.1354
    142  NH2       26.9070   21.9410   48.9710 N.pl3 178  ARG178      0.1354
@<TRIPOS>BOND
     1   120   118   ar
     2    76    77    1
     3   118   117    1
     4   118   119   ar
     5   117   116    1
     6    77    78    1
     7    77    80    1
     8    78    79    2
     9   116   113    1
    10    80    81    1
    11   112   113    1
    12   113   114    1
    13    82    81   ar
    14    82    84   ar
    15    81    83   ar
    16    84    85   ar
    17   114   121   am
    18   114   115    2
    19    83    86   ar
    20    83    85   ar
    21   121   122    1
    22    86    88   ar
    23    85    87   ar
    24   124   123    2
    25   125   122    1
    26   122   123    1
    27    18    19    1
    28    18    17    1
    29    88    89   ar
    30    87    89   ar
    31    19    20    2
    32    17    16    1
    33    16    13    1
    34    20    22    1
    35    20    21    1
    36   139   138    1
    37   139   140    2
    38   138   137    1
    39   137   136    1
    40   136   133    1
    41    12    13    1
    42    13    14    1
    43   142   140    1
    44   140   141    1
    45    15    14    2
    46   134   133    1
    47   134   135    2
    48    14    23   am
    49   101   100    1
    50   101   102    1
    51   133   132    1
    52   100    92   am
    53   105   104    1
    54   105   106    1
    55    10     9    1
    56    23    24    1
    57   102   103    2
    58    90    91    1
    59    92    93    2
    60    92    91    1
    61    42    41    1
    62   107   106    2
    63     9    11    1
    64     9     8    2
    65   106   108   am
    66    24    25    1
    67    24    27    1
    68    91    94    1
    69     7     8    1
    70     7     6    1
    71     4     3    2
    72    26    25    2
    73     5     6    1
    74     5     2    1
    75     3     2    1
    76    25    37   am
    77    41    38    1
    78    27    28    1
    79   108   109    1
    80   131   130    1
    81     2     1    1
    82    37    38    1
    83   129   128    2
    84    94    95    1
    85    38    39    1
    86    96    95   ar
    87    96    98   ar
    88    29    28   ar
    89    29    31   ar
    90    28    30   ar
    91   128   127    1
    92   110   109    1
    93   110   111    2
    94    95    97   ar
    95   130   127    1
    96    98    99   ar
    97   127   126    1
    98    39    40    2
    99    31    32   ar
   100    97    99   ar
   101    30    32   ar
   102    30    33   ar
   103    60    59    2
   104    32    34   ar
   105    33    35   ar
   106    75    74   ar
   107    75    73   ar
   108    74    72   ar
   109    59    61   am
   110    59    58    1
   111    73    71   ar
   112    34    36   ar
   113    35    36   ar
   114    58    55    1
   115    53    51    1
   116    72    69   ar
   117    71    69   ar
   118    71    70   ar
   119    51    50    2
   120    51    52    1
   121    43    44    1
   122    50    49    1
   123    55    56    1
   124    55    54    1
   125    69    67   ar
   126    48    49    1
   127    48    47    1
   128    44    47    1
   129    44    45    1
   130    57    56    2
   131    70    68   ar
   132    45    46    2
   133    67    68   ar
   134    67    66    1
   135    65    64    2
   136    64    63    1
   137    66    63    1
   138    63    62    1
