@<TRIPOS>MOLECULE
tmp/2frqA00.pdb
 130 127 0 0 0
SMALL
GASTEIGER

@<TRIPOS>ATOM
      1  N         20.2180   91.0150  130.3370 N.3    20  GLN20      -0.1245
      2  CA        20.1210   90.2310  129.1060 C.3    20  GLN20       0.1566
      3  C         19.5060   90.9830  127.9320 C.2    20  GLN20       0.2260
      4  O         19.7060   90.6090  126.7760 O.2    20  GLN20      -0.2867
      5  CB        19.3410   88.9320  129.3600 C.3    20  GLN20       0.0367
      6  CG        17.8690   89.1100  129.6920 C.3    20  GLN20       0.0905
      7  CD        17.1930   87.7940  130.0570 C.2    20  GLN20       0.2608
      8  OE1       17.5470   87.1560  131.0490 O.2    20  GLN20      -0.2717
      9  NE2       16.2170   87.3840  129.2540 N.am   20  GLN20      -0.0878
     10  N         16.8590   86.2640  124.8180 N.3    24  GLY24      -0.1225
     11  CA        16.4390   85.3010  125.8270 C.3    24  GLY24       0.1811
     12  C         17.5830   84.4180  126.2870 C.2    24  GLY24       0.2280
     13  O         17.5880   83.2090  126.0470 O.2    24  GLY24      -0.2866
     14  N         18.5290   84.0130  129.5600 N.3    26  CYS26      -0.1221
     15  CA        18.4100   83.7440  130.9950 C.3    26  CYS26       0.1808
     16  C         19.1510   82.4710  131.4070 C.2    26  CYS26       0.2601
     17  O         19.8030   82.4290  132.4530 O.2    26  CYS26      -0.2717
     18  CB        16.9310   83.6240  131.3930 C.3    26  CYS26       0.0970
     19  SG        16.0070   82.2640  130.5950 S.3    26  CYS26      -0.0800
     20  N         19.0410   81.4380  130.5780 N.am   27  TRP27      -0.1976
     21  CA        19.6870   80.1540  130.8360 C.3    27  TRP27       0.1640
     22  C         21.2100   80.2720  130.8740 C.2    27  TRP27       0.2290
     23  O         21.8740   79.6280  131.6920 O.2    27  TRP27      -0.2864
     24  CB        19.2780   79.1450  129.7590 C.3    27  TRP27       0.0576
     25  CG        19.6180   79.5860  128.3680 C.ar   27  TRP27       0.0006
     26  CD1       18.9260   80.4750  127.5890 C.ar   27  TRP27       0.0946
     27  CD2       20.7520   79.1810  127.6040 C.ar   27  TRP27       0.0152
     28  NE1       19.5650   80.6460  126.3830 N.ar   27  TRP27      -0.2442
     29  CE2       20.6910   79.8590  126.3650 C.ar   27  TRP27       0.0810
     30  CE3       21.8230   78.3040  127.8430 C.ar   27  TRP27       0.0012
     31  CZ2       21.6590   79.6930  125.3680 C.ar   27  TRP27       0.0191
     32  CZ3       22.7860   78.1390  126.8530 C.ar   27  TRP27       0.0001
     33  CH2       22.6940   78.8300  125.6290 C.ar   27  TRP27       0.0015
     34  N         20.9080   71.2570  122.2750 N.3    63  GLY63      -0.1225
     35  CA        19.4820   71.5210  122.3630 C.3    63  GLY63       0.1811
     36  C         19.1310   72.9550  122.7140 C.2    63  GLY63       0.2280
     37  O         17.9970   73.2450  123.1020 O.2    63  GLY63      -0.2866
     38  N         19.4060   83.1250  121.6460 N.3    67  CYS67      -0.1221
     39  CA        18.4950   84.1290  122.1730 C.3    67  CYS67       0.1808
     40  C         17.0500   83.6550  122.2330 C.2    67  CYS67       0.2601
     41  O         16.1700   84.3880  122.6840 O.2    67  CYS67      -0.2717
     42  CB        18.5890   85.4240  121.3590 C.3    67  CYS67       0.0970
     43  SG        20.1620   86.3180  121.5870 S.3    67  CYS67      -0.0800
     44  N         16.8040   82.4290  121.7830 N.am   68  ASN68      -0.1960
     45  CA        15.4580   81.8840  121.8370 C.3    68  ASN68       0.1819
     46  C         15.3160   80.8150  122.9170 C.2    68  ASN68       0.2622
     47  O         14.3690   80.0310  122.9070 O.2    68  ASN68      -0.2715
     48  CB        15.0380   81.3370  120.4730 C.3    68  ASN68       0.1195
     49  CG        14.7460   82.4450  119.4770 C.2    68  ASN68       0.2630
     50  OD1       13.9680   83.3580  119.7600 O.2    68  ASN68      -0.2716
     51  ND2       15.3680   82.3710  118.3060 N.am   68  ASN68      -0.0877
     52  N         16.2650   80.7810  123.8500 N.am   69  GLY69      -0.1940
     53  CA        16.1740   79.8250  124.9410 C.3    69  GLY69       0.2014
     54  C         17.1610   78.6760  124.9860 C.2    69  GLY69       0.2639
     55  O         17.7720   78.3100  123.9820 O.2    69  GLY69      -0.2714
     56  N         17.3010   78.0910  126.1730 N.am   70  GLY70      -0.1939
     57  CA        18.2170   76.9790  126.3500 C.3    70  GLY70       0.2014
     58  C         18.1670   76.3890  127.7490 C.2    70  GLY70       0.2639
     59  O         17.3140   76.7650  128.5580 O.2    70  GLY70      -0.2714
     60  N         19.0890   75.4730  128.0370 N.am   71  PHE71      -0.1959
     61  CA        19.1400   74.8040  129.3370 C.3    71  PHE71       0.1771
     62  C         20.4470   75.0660  130.0780 C.2    71  PHE71       0.2619
     63  O         21.5130   75.1140  129.4620 O.2    71  PHE71      -0.2715
     64  CB        19.0160   73.2800  129.1740 C.3    71  PHE71       0.0574
     65  CG        17.8520   72.8350  128.3330 C.ar   71  PHE71      -0.0200
     66  CD1       17.9560   72.7900  126.9470 C.ar   71  PHE71      -0.0042
     67  CD2       16.6620   72.4310  128.9290 C.ar   71  PHE71      -0.0042
     68  CE1       16.8920   72.3500  126.1630 C.ar   71  PHE71      -0.0003
     69  CE2       15.5880   71.9890  128.1510 C.ar   71  PHE71      -0.0003
     70  CZ        15.7090   71.9480  126.7670 C.ar   71  PHE71      -0.0000
     71  N         20.3730   75.2060  131.4010 N.am   72  MET72      -0.1977
     72  CA        21.5830   75.4120  132.1900 C.3    72  MET72       0.1605
     73  C         22.3880   74.1130  132.2240 C.2    72  MET72       0.2287
     74  O         23.6160   74.1310  132.1410 O.2    72  MET72      -0.2864
     75  CB        21.2500   75.8420  133.6280 C.3    72  MET72       0.0413
     76  CG        20.6610   77.2440  133.7640 C.3    72  MET72       0.0598
     77  SD        18.8940   77.3500  133.4250 S.3    72  MET72      -0.1393
     78  CE        18.2320   76.8130  135.0180 C.3    72  MET72       0.0692
     79  N         14.8660   76.9600  137.4870 N.3   138  GLY138     -0.1225
     80  CA        13.9170   77.4990  136.5340 C.3   138  GLY138      0.1811
     81  C         12.6920   77.8930  137.3380 C.2   138  GLY138      0.2280
     82  O         12.3460   77.2150  138.3070 O.2   138  GLY138     -0.2866
     83  N          5.1790   74.9300  135.9890 N.3   162  ASN162     -0.1225
     84  CA         5.6210   74.8950  134.5980 C.3   162  ASN162      0.1785
     85  C          6.5720   76.0810  134.4870 C.2   162  ASN162      0.2597
     86  O          6.1380   77.2110  134.2710 O.2   162  ASN162     -0.2718
     87  CB         4.4420   75.0900  133.6430 C.3   162  ASN162      0.1169
     88  CG         3.4010   73.9960  133.7680 C.2   162  ASN162      0.2627
     89  OD1        3.6950   72.8150  133.5800 O.2   162  ASN162     -0.2716
     90  ND2        2.1730   74.3870  134.0840 N.am  162  ASN162     -0.0877
     91  N          7.8630   75.8190  134.6510 N.am  163  VAL163     -0.1966
     92  CA         8.8670   76.8740  134.6160 C.3   163  VAL163      0.1727
     93  C          9.2540   77.3160  133.2110 C.2   163  VAL163      0.2616
     94  O          9.1500   76.5470  132.2600 O.2   163  VAL163     -0.2715
     95  CB        10.1280   76.4380  135.3830 C.3   163  VAL163      0.0290
     96  CG1        9.7490   76.0720  136.8130 C.3   163  VAL163      0.0023
     97  CG2       10.7870   75.2560  134.6870 C.3   163  VAL163      0.0023
     98  N          9.7020   78.5620  133.0870 N.am  164  ASN164     -0.1958
     99  CA        10.0840   79.0940  131.7850 C.3   164  ASN164      0.1819
    100  C         11.2420   80.0780  131.8520 C.2   164  ASN164      0.2621
    101  O         11.7700   80.4770  130.8200 O.2   164  ASN164     -0.2715
    102  CB         8.8880   79.8040  131.1430 C.3   164  ASN164      0.1195
    103  CG         8.6370   81.1820  131.7410 C.2   164  ASN164      0.2630
    104  OD1        8.6410   81.3580  132.9590 O.2   164  ASN164     -0.2716
    105  ND2        8.4120   82.1680  130.8780 N.am  164  ASN164     -0.0877
    106  N         11.6420   80.4580  133.0600 N.am  165  HIS165     -0.1959
    107  CA        12.7050   81.4450  133.2240 C.3   165  HIS165      0.1787
    108  C         13.8540   80.9390  134.0940 C.2   165  HIS165      0.2620
    109  O         13.6460   80.5170  135.2310 O.2   165  HIS165     -0.2715
    110  CB        12.0900   82.7160  133.8210 C.3   165  HIS165      0.0785
    111  CG        13.0420   83.8660  133.9300 C.ar  165  HIS165      0.0821
    112  ND1       13.7560   84.3480  132.8540 N.ar  165  HIS165     -0.2267
    113  CD2       13.3710   84.6490  134.9830 C.ar  165  HIS165      0.1154
    114  CE1       14.4860   85.3810  133.2430 C.ar  165  HIS165      0.1986
    115  NE2       14.2700   85.5830  134.5280 N.ar  165  HIS165     -0.2212
    116  N         15.0650   80.9830  133.5450 N.am  166  GLY166     -0.1954
    117  CA        16.2360   80.5230  134.2760 C.3   166  GLY166      0.1869
    118  C         16.8750   81.6100  135.1190 C.2   166  GLY166      0.2309
    119  O         17.1850   82.6900  134.6160 O.2   166  GLY166     -0.2863
    120  N         13.5190   72.1340  138.7500 N.3   212  PHE212     -0.1241
    121  CA        14.7070   71.6980  138.0230 C.3   212  PHE212      0.1605
    122  C         15.9730   72.4390  138.4390 C.2   212  PHE212      0.2264
    123  O         16.4930   73.2670  137.6930 O.2   212  PHE212     -0.2867
    124  CB        14.4900   71.8630  136.5150 C.3   212  PHE212      0.0534
    125  CG        13.3160   71.0830  135.9820 C.ar  212  PHE212     -0.0203
    126  CD1       12.1220   71.7250  135.6680 C.ar  212  PHE212     -0.0042
    127  CD2       13.4040   69.7090  135.8050 C.ar  212  PHE212     -0.0042
    128  CE1       11.0290   71.0060  135.1810 C.ar  212  PHE212     -0.0003
    129  CE2       12.3160   68.9790  135.3200 C.ar  212  PHE212     -0.0003
    130  CZ        11.1290   69.6300  135.0080 C.ar  212  PHE212     -0.0000
@<TRIPOS>BOND
     1    51    49   am
     2    49    50    2
     3    49    48    1
     4    48    45    1
     5    42    43    1
     6    42    39    1
     7    38    39    1
     8    44    45    1
     9    44    40   am
    10    45    46    1
    11    39    40    1
    12    40    41    2
    13    34    35    1
    14    35    36    1
    15    36    37    2
    16    47    46    2
    17    46    52   am
    18    52    53    1
    19    55    54    2
    20    10    11    1
    21    53    54    1
    22    54    56   am
    23    31    33   ar
    24    31    29   ar
    25    33    32   ar
    26    11    12    1
    27    13    12    2
    28    68    70   ar
    29    68    66   ar
    30    56    57    1
    31    57    58    1
    32    29    28   ar
    33    29    27   ar
    34    28    26   ar
    35    70    69   ar
    36     4     3    2
    37    32    30   ar
    38    66    65   ar
    39    26    25   ar
    40    27    30   ar
    41    27    25   ar
    42    58    60   am
    43    58    59    2
    44     3     2    1
    45    60    61    1
    46    69    67   ar
    47    65    67   ar
    48    65    64    1
    49    25    24    1
    50     2     5    1
    51     2     1    1
    52    64    61    1
    53     9     7   am
    54    61    62    1
    55     5     6    1
    56    63    62    2
    57    14    15    1
    58     6     7    1
    59    24    21    1
    60     7     8    2
    61    62    71   am
    62    20    21    1
    63    20    16   am
    64    19    18    1
    65   101   100    2
    66    21    22    1
    67    22    23    2
    68   105   103   am
    69    15    18    1
    70    15    16    1
    71   102   103    1
    72   102    99    1
    73    71    72    1
    74    16    17    2
    75   103   104    2
    76    99   100    1
    77    99    98    1
    78   100   106   am
    79    74    73    2
    80    72    73    1
    81    72    75    1
    82    94    93    2
    83   112   114   ar
    84   112   111   ar
    85   106   107    1
    86    98    93   am
    87    93    92    1
    88   107   110    1
    89   107   108    1
    90   114   115   ar
    91    77    76    1
    92    77    78    1
    93   116   108   am
    94   116   117    1
    95    89    88    2
    96    75    76    1
    97    87    88    1
    98    87    84    1
    99    88    90   am
   100   110   111    1
   101   111   113   ar
   102   108   109    2
   103    86    85    2
   104   117   118    1
   105    85    84    1
   106    85    91   am
   107   115   113   ar
   108    84    83    1
   109    92    91    1
   110    92    95    1
   111   119   118    2
   112    97    95    1
   113   130   128   ar
   114   130   129   ar
   115   128   126   ar
   116   129   127   ar
   117    95    96    1
   118   126   125   ar
   119   127   125   ar
   120   125   124    1
   121   124   121    1
   122    80    81    1
   123    80    79    1
   124    81    82    2
   125   123   122    2
   126   121   122    1
   127   121   120    1
