@<TRIPOS>MOLECULE
tmp/2fs8B00.pdb
 195 191 0 0 0
SMALL
GASTEIGER

@<TRIPOS>ATOM
      1  N        -22.2680   42.0130   78.7120 N.3    20  VAL20      -0.1245
      2  CA       -21.3080   42.7420   79.5270 C.3    20  VAL20       0.1561
      3  C        -19.9620   42.6940   78.8280 C.2    20  VAL20       0.2260
      4  O        -19.5900   41.6610   78.2710 O.2    20  VAL20      -0.2867
      5  CB       -21.1640   42.1140   80.9030 C.3    20  VAL20       0.0252
      6  CG1      -20.9070   40.6460   80.7700 C.3    20  VAL20       0.0019
      7  CG2      -20.0140   42.7640   81.6360 C.3    20  VAL20       0.0019
      8  N        -25.1010   37.6800   79.8760 N.3    28  PHE28      -0.1227
      9  CA       -25.1730   37.3620   81.3050 C.3    28  PHE28       0.1736
     10  C        -26.6260   37.2030   81.7790 C.2    28  PHE28       0.2595
     11  O        -26.8790   36.6120   82.8320 O.2    28  PHE28      -0.2718
     12  CB       -24.4540   38.4220   82.1500 C.3    28  PHE28       0.0547
     13  CG       -25.0160   39.8000   82.0090 C.ar   28  PHE28      -0.0202
     14  CD1      -24.6420   40.6170   80.9440 C.ar   28  PHE28      -0.0042
     15  CD2      -25.9070   40.2960   82.9570 C.ar   28  PHE28      -0.0042
     16  CE1      -25.1480   41.9120   80.8290 C.ar   28  PHE28      -0.0003
     17  CE2      -26.4180   41.5880   82.8510 C.ar   28  PHE28      -0.0003
     18  CZ       -26.0360   42.3990   81.7850 C.ar   28  PHE28      -0.0000
     19  N        -27.5740   37.7140   80.9910 N.am   29  CYS29      -0.1970
     20  CA       -28.9910   37.6270   81.3310 C.3    29  CYS29       0.1712
     21  C        -29.9320   37.8550   80.1640 C.2    29  CYS29       0.2296
     22  O        -29.5590   38.3910   79.1200 O.2    29  CYS29      -0.2864
     23  CB       -29.3760   38.6470   82.4160 C.3    29  CYS29       0.0983
     24  SG       -28.9420   38.2040   84.1250 S.3    29  CYS29      -0.0798
     25  N        -31.3170   41.6100   90.0120 N.3    44  HIS44      -0.1226
     26  CA       -30.0550   40.9540   90.3640 C.3    44  HIS44       0.1752
     27  C        -29.0970   40.7810   89.1940 C.2    44  HIS44       0.2596
     28  O        -27.9330   40.4680   89.3880 O.2    44  HIS44      -0.2718
     29  CB       -30.2910   39.5930   91.0700 C.3    44  HIS44       0.0759
     30  CG       -30.5730   38.4500   90.1430 C.ar   44  HIS44       0.0818
     31  ND1      -31.8350   37.9190   89.9760 N.ar   44  HIS44      -0.2268
     32  CD2      -29.7580   37.7520   89.3130 C.ar   44  HIS44       0.1154
     33  CE1      -31.7890   36.9470   89.0790 C.ar   44  HIS44       0.1986
     34  NE2      -30.5410   36.8260   88.6620 N.ar   44  HIS44      -0.2212
     35  N        -29.5820   40.9920   87.9780 N.am   45  CYS45      -0.1956
     36  CA       -28.7370   40.8700   86.8070 C.3    45  CYS45       0.1843
     37  C        -27.8550   42.0940   86.6910 C.2    45  CYS45       0.2625
     38  O        -26.7780   42.0410   86.0790 O.2    45  CYS45      -0.2714
     39  CB       -29.5950   40.7490   85.5570 C.3    45  CYS45       0.0997
     40  SG       -30.3460   39.1100   85.2890 S.3    45  CYS45      -0.0797
     41  N        -28.3120   43.1950   87.2840 N.am   46  VAL46      -0.1977
     42  CA       -27.5860   44.4450   87.2150 C.3    46  VAL46       0.1596
     43  C        -27.4700   45.1380   88.5600 C.2    46  VAL46       0.2287
     44  O        -27.2450   46.3460   88.6150 O.2    46  VAL46      -0.2864
     45  CB       -28.2770   45.4120   86.2340 C.3    46  VAL46       0.0276
     46  CG1      -28.2370   44.8510   84.8300 C.3    46  VAL46       0.0022
     47  CG2      -29.7080   45.6230   86.6480 C.3    46  VAL46       0.0022
     48  N        -23.6570   49.8160   88.5280 N.3    51  LYS51      -0.1231
     49  CA       -22.9160   49.3360   87.3670 C.3    51  LYS51       0.1693
     50  C        -22.5270   50.4490   86.3970 C.2    51  LYS51       0.2592
     51  O        -23.1590   51.5150   86.3500 O.2    51  LYS51      -0.2718
     52  CB       -23.7440   48.2960   86.6060 C.3    51  LYS51       0.0285
     53  CG       -24.2690   47.1360   87.4430 C.3    51  LYS51       0.0035
     54  CD       -23.1790   46.2530   88.0250 C.3    51  LYS51       0.0206
     55  CE       -23.8210   45.0560   88.7220 C.3    51  LYS51       0.1093
     56  NZ       -22.8620   44.2950   89.5780 N.3    51  LYS51      -0.1314
     57  N        -21.4860   50.1880   85.6150 N.am   52  ASP52      -0.1974
     58  CA       -21.0230   51.1510   84.6360 C.3    52  ASP52       0.1709
     59  C        -21.7780   50.9070   83.3410 C.2    52  ASP52       0.2293
     60  O        -21.6650   49.8280   82.7560 O.2    52  ASP52      -0.2864
     61  CB       -19.5340   50.9620   84.3850 C.3    52  ASP52       0.1436
     62  CG       -18.9750   51.9730   83.3960 C.2    52  ASP52       0.3671
     63  OD1      -17.8040   51.8090   82.9950 O.co2  52  ASP52      -0.2456
     64  OD2      -19.6900   52.9340   83.0190 O.co2  52  ASP52      -0.2456
     65  N        -20.1150   49.5580   79.9840 N.3    55  ALA55      -0.1231
     66  CA       -19.8340   48.1400   79.8380 C.3    55  ALA55       0.1694
     67  C        -21.0560   47.2710   79.5890 C.2    55  ALA55       0.2591
     68  O        -20.9600   46.0440   79.6250 O.2    55  ALA55      -0.2718
     69  CB       -19.0950   47.6470   81.0890 C.3    55  ALA55       0.0304
     70  N        -22.2020   47.8920   79.3300 N.am   56  LEU56      -0.1980
     71  CA       -23.4190   47.1320   79.1080 C.3    56  LEU56       0.1596
     72  C        -24.0540   47.3620   77.7350 C.2    56  LEU56       0.2287
     73  O        -24.0450   48.4700   77.2080 O.2    56  LEU56      -0.2864
     74  CB       -24.4080   47.4570   80.2240 C.3    56  LEU56       0.0297
     75  CG       -25.8540   46.9730   80.1250 C.3    56  LEU56       0.0022
     76  CD1      -25.8650   45.4800   80.1770 C.3    56  LEU56       0.0001
     77  CD2      -26.6860   47.5500   81.2730 C.3    56  LEU56       0.0001
     78  N        -32.5230   38.4290   95.4610 N.3    86  ALA86      -0.1231
     79  CA       -33.6480   37.7580   94.8340 C.3    86  ALA86       0.1694
     80  C        -34.6190   37.0880   95.8110 C.2    86  ALA86       0.2591
     81  O        -35.8350   37.0940   95.5950 O.2    86  ALA86      -0.2718
     82  CB       -33.1330   36.7450   93.8360 C.3    86  ALA86       0.0304
     83  N        -34.0920   36.5070   96.8830 N.am   87  GLN87      -0.1979
     84  CA       -34.9550   35.8260   97.8370 C.3    87  GLN87       0.1601
     85  C        -35.7910   36.7850   98.6510 C.2    87  GLN87       0.2287
     86  O        -36.9010   36.4580   99.0390 O.2    87  GLN87      -0.2864
     87  CB       -34.1460   34.9530   98.7900 C.3    87  GLN87       0.0394
     88  CG       -33.4790   33.7530   98.1710 C.3    87  GLN87       0.0908
     89  CD       -32.2400   34.1080   97.3740 C.2    87  GLN87       0.2608
     90  OE1      -31.5930   35.1390   97.6050 O.2    87  GLN87      -0.2717
     91  NE2      -31.8940   33.2430   96.4310 N.am   87  GLN87      -0.0878
     92  N        -38.2580   23.8780   83.0780 N.3   188  ASP188     -0.1225
     93  CA       -37.9040   24.9890   83.9580 C.3   188  ASP188      0.1805
     94  C        -36.8670   25.8780   83.2470 C.2   188  ASP188      0.2598
     95  O        -36.3030   25.4900   82.2130 O.2   188  ASP188     -0.2718
     96  CB       -37.3230   24.4010   85.2670 C.3   188  ASP188      0.1424
     97  CG       -37.3230   25.3860   86.4420 C.2   188  ASP188      0.3668
     98  OD1      -37.7080   26.5630   86.2910 O.co2 188  ASP188     -0.2456
     99  OD2      -36.9200   24.9550   87.5400 O.co2 188  ASP188     -0.2456
    100  N        -36.6420   27.0710   83.7970 N.am  189  SER189     -0.1938
    101  CA       -35.6590   28.0090   83.2690 C.3   189  SER189      0.2055
    102  C        -34.4200   27.7420   84.1090 C.2   189  SER189      0.2643
    103  O        -34.5260   27.0800   85.1230 O.2   189  SER189     -0.2714
    104  CB       -36.1540   29.4360   83.4370 C.3   189  SER189      0.2130
    105  OG       -36.8170   29.5600   84.6710 O.3   189  SER189     -0.2179
    106  N        -33.2540   28.2360   83.6990 N.am  190  CYS190     -0.1953
    107  CA       -32.0320   27.9490   84.4410 C.3   190  CYS190      0.1843
    108  C        -31.0240   29.0960   84.3760 C.2   190  CYS190      0.2625
    109  O        -31.3480   30.1580   83.8640 O.2   190  CYS190     -0.2714
    110  CB       -31.4190   26.6720   83.8700 C.3   190  CYS190      0.0997
    111  SG       -30.3600   25.7360   85.0090 S.3   190  CYS190     -0.0797
    112  N        -29.8120   28.8860   84.8960 N.am  191  GLN191     -0.1963
    113  CA       -28.7720   29.9280   84.8770 C.3   191  GLN191      0.1733
    114  C        -28.5180   30.4000   83.4480 C.2   191  GLN191      0.2616
    115  O        -28.1400   29.6140   82.5850 O.2   191  GLN191     -0.2715
    116  CB       -27.4600   29.4310   85.5120 C.3   191  GLN191      0.0408
    117  CG       -27.4640   29.3740   87.0480 C.3   191  GLN191      0.0908
    118  CD       -28.4670   28.3610   87.6290 C.2   191  GLN191      0.2608
    119  OE1      -28.6030   27.2370   87.1310 O.2   191  GLN191     -0.2717
    120  NE2      -29.1530   28.7530   88.6940 N.am  191  GLN191     -0.0878
    121  N        -28.7440   31.6890   83.2080 N.am  192  GLY192     -0.1955
    122  CA       -28.5710   32.2540   81.8840 C.3   192  GLY192      0.1869
    123  C        -29.8930   32.8080   81.3940 C.2   192  GLY192      0.2309
    124  O        -29.9590   33.6220   80.4670 O.2   192  GLY192     -0.2863
    125  N        -32.1690   34.1810   83.7040 N.3   194  SER194     -0.1217
    126  CA       -32.6070   35.2260   84.6410 C.3   194  SER194      0.1889
    127  C        -32.7810   36.5950   83.9600 C.2   194  SER194      0.2288
    128  O        -31.9530   37.0550   83.1540 O.2   194  SER194     -0.2866
    129  CB       -31.6770   35.3320   85.8960 C.3   194  SER194      0.2089
    130  OG       -31.4470   34.0570   86.6500 O.3   194  SER194     -0.2183
    131  N        -37.8420   35.8990   85.0040 N.3   212  VAL212     -0.1231
    132  CA       -37.0590   34.7810   85.5280 C.3   212  VAL212      0.1692
    133  C        -36.2300   35.3340   86.6770 C.2   212  VAL212      0.2593
    134  O        -35.3590   36.1770   86.4540 O.2   212  VAL212     -0.2718
    135  CB       -36.1240   34.2230   84.4770 C.3   212  VAL212      0.0266
    136  CG1      -35.2650   33.1620   85.0860 C.3   212  VAL212      0.0020
    137  CG2      -36.9100   33.6300   83.3450 C.3   212  VAL212      0.0020
    138  N        -36.5040   34.8770   87.9020 N.am  213  SER213     -0.1938
    139  CA       -35.7820   35.3870   89.0680 C.3   213  SER213      0.2055
    140  C        -34.8060   34.3920   89.6880 C.2   213  SER213      0.2643
    141  O        -33.6110   34.4510   89.4050 O.2   213  SER213     -0.2714
    142  CB       -36.7760   35.8680   90.1160 C.3   213  SER213      0.2130
    143  OG       -36.1430   36.7130   91.0460 O.3   213  SER213     -0.2179
    144  N        -35.3040   33.4840   90.5250 N.am  214  TRP214     -0.1959
    145  CA       -34.4350   32.5000   91.1730 C.3   214  TRP214      0.1771
    146  C        -35.0550   31.1020   91.3140 C.2   214  TRP214      0.2620
    147  O        -36.0980   30.7930   90.7390 O.2   214  TRP214     -0.2715
    148  CB       -33.9950   33.0040   92.5580 C.3   214  TRP214      0.0590
    149  CG       -35.1330   33.2420   93.5150 C.ar  214  TRP214      0.0006
    150  CD1      -36.0760   34.2320   93.4410 C.ar  214  TRP214      0.0946
    151  CD2      -35.4890   32.4390   94.6570 C.ar  214  TRP214      0.0152
    152  NE1      -37.0010   34.0960   94.4570 N.ar  214  TRP214     -0.2442
    153  CE2      -36.6650   33.0060   95.2190 C.ar  214  TRP214      0.0810
    154  CE3      -34.9320   31.2950   95.2620 C.ar  214  TRP214      0.0012
    155  CZ2      -37.2920   32.4670   96.3570 C.ar  214  TRP214      0.0191
    156  CZ3      -35.5630   30.7590   96.3980 C.ar  214  TRP214      0.0001
    157  CH2      -36.7290   31.3480   96.9270 C.ar  214  TRP214      0.0015
    158  N        -34.3910   30.2460   92.0760 N.am  215  GLY215     -0.1954
    159  CA       -34.9060   28.9110   92.2890 C.3   215  GLY215      0.1869
    160  C        -33.7880   28.0650   92.8340 C.2   215  GLY215      0.2309
    161  O        -32.6310   28.4050   92.6370 O.2   215  GLY215     -0.2863
    162  N        -31.6660   25.3960   92.2530 N.3   217  GLY217     -0.1210
    163  CA       -31.3040   24.5850   91.1110 C.3   217  GLY217      0.1956
    164  C        -32.3290   24.7860   90.0050 C.2   217  GLY217      0.2612
    165  O        -33.1040   25.7420   90.0250 O.2   217  GLY217     -0.2717
    166  N        -32.3460   23.8720   89.0450 N.am  218  CYS218     -0.1970
    167  CA       -33.2690   23.9500   87.9230 C.3   218  CYS218      0.1712
    168  C        -33.9870   22.6190   87.7840 C.2   218  CYS218      0.2296
    169  O        -33.3620   21.5760   87.7720 O.2   218  CYS218     -0.2864
    170  CB       -32.4940   24.2620   86.6340 C.3   218  CYS218      0.0983
    171  SG       -31.4080   25.7340   86.7540 S.3   218  CYS218     -0.0798
    172  N        -39.5820   26.8620   89.6820 N.3   225  GLY225     -0.1210
    173  CA       -38.9760   28.1430   89.3690 C.3   225  GLY225      0.1956
    174  C        -39.7390   29.3240   89.9370 C.2   225  GLY225      0.2612
    175  O        -40.9640   29.3800   89.8660 O.2   225  GLY225     -0.2717
    176  N        -39.0070   30.2780   90.4910 N.am  226  ILE226     -0.1965
    177  CA       -39.6080   31.4580   91.0780 C.3   226  ILE226      0.1727
    178  C        -39.4000   32.6550   90.1570 C.2   226  ILE226      0.2616
    179  O        -38.2830   32.9050   89.6850 O.2   226  ILE226     -0.2715
    180  CB       -38.9710   31.7650   92.4580 C.3   226  ILE226      0.0290
    181  CG1      -38.9420   30.4980   93.3220 C.3   226  ILE226      0.0022
    182  CG2      -39.7630   32.8390   93.1790 C.3   226  ILE226      0.0023
    183  CD1      -40.2830   29.9590   93.6040 C.3   226  ILE226      0.0001
    184  N        -40.4760   33.4000   89.9060 N.am  227  TYR227     -0.1974
    185  CA       -40.4110   34.5810   89.0420 C.3   227  TYR227      0.1639
    186  C        -40.9340   35.8270   89.7400 C.2   227  TYR227      0.2290
    187  O        -41.7510   35.7160   90.6550 O.2   227  TYR227     -0.2864
    188  CB       -41.2260   34.3490   87.7850 C.3   227  TYR227      0.0560
    189  CG       -40.7790   33.1790   86.9560 C.ar  227  TYR227     -0.0198
    190  CD1      -41.0440   31.8760   87.3610 C.ar  227  TYR227     -0.0009
    191  CD2      -40.1490   33.3790   85.7310 C.ar  227  TYR227     -0.0009
    192  CE1      -40.7020   30.7990   86.5660 C.ar  227  TYR227      0.0417
    193  CE2      -39.8040   32.3150   84.9260 C.ar  227  TYR227      0.0417
    194  CZ       -40.0830   31.0270   85.3480 C.ar  227  TYR227      0.1957
    195  OH       -39.7350   29.9680   84.5580 O.3   227  TYR227     -0.2866
@<TRIPOS>BOND
     1    73    72    2
     2    72    71    1
     3     4     3    2
     4     1     2    1
     5     3     2    1
     6    71    70    1
     7    71    74    1
     8    22    21    2
     9    70    67   am
    10     2     5    1
    11    67    68    2
    12    67    66    1
    13    66    65    1
    14    66    69    1
    15     8     9    1
    16    75    76    1
    17    75    74    1
    18    75    77    1
    19    21    20    1
    20   124   123    2
    21     6     5    1
    22    16    14   ar
    23    16    18   ar
    24     5     7    1
    25    14    13   ar
    26    19    20    1
    27    19    10   am
    28     9    10    1
    29     9    12    1
    30    20    23    1
    31   123   122    1
    32    10    11    2
    33    18    17   ar
    34   122   121    1
    35    13    12    1
    36    13    15   ar
    37    95    94    2
    38    23    24    1
    39   115   114    2
    40    60    59    2
    41    17    15   ar
    42    63    62   ar
    43    64    62   ar
    44    92    93    1
    45   128   127    2
    46   121   114   am
    47    94   100   am
    48    94    93    1
    49   101   104    1
    50   101   100    1
    51   101   102    1
    52    59    58    1
    53   137   135    1
    54    62    61    1
    55   104   105    1
    56   114   113    1
    57   106   102   am
    58   106   107    1
    59   125   126    1
    60   109   108    2
    61   110   107    1
    62   110   111    1
    63    93    96    1
    64   127   126    1
    65   102   103    2
    66    24    40    1
    67   108   107    1
    68   108   112   am
    69    61    58    1
    70   135   136    1
    71   135   132    1
    72   195   194    1
    73    58    57    1
    74   126   129    1
    75    46    45    1
    76   113   112    1
    77   113   116    1
    78   193   194   ar
    79   193   191   ar
    80   131   132    1
    81   111   171    1
    82    96    97    1
    83    40    39    1
    84   194   192   ar
    85   116   117    1
    86   132   133    1
    87    39    36    1
    88    57    50   am
    89   191   189   ar
    90   129   130    1
    91    38    37    2
    92    45    47    1
    93    45    42    1
    94    98    97   ar
    95    51    50    2
    96    50    49    1
    97    97    99   ar
    98   134   133    2
    99   192   190   ar
   100    52    49    1
   101    52    53    1
   102   170   171    1
   103   170   167    1
   104   133   138   am
   105    37    36    1
   106    37    41   am
   107    36    35    1
   108   189   190   ar
   109   189   188    1
   110   117   118    1
   111   119   118    2
   112    42    41    1
   113    42    43    1
   114    49    48    1
   115    53    54    1
   116   118   120   am
   117   169   168    2
   118   168   167    1
   119   188   185    1
   120   138   139    1
   121   167   166    1
   122    35    27   am
   123    54    55    1
   124    43    44    2
   125    34    33   ar
   126    34    32   ar
   127    55    56    1
   128   185   186    1
   129   185   184    1
   130   166   164   am
   131   139   140    1
   132   139   142    1
   133    33    31   ar
   134    27    28    2
   135    27    26    1
   136    32    30   ar
   137   173   172    1
   138   173   174    1
   139   141   140    2
   140   179   178    2
   141   140   144   am
   142   186   187    2
   143   175   174    2
   144   184   178   am
   145   174   176   am
   146    31    30   ar
   147   164   165    2
   148   164   163    1
   149    25    26    1
   150   142   143    1
   151    30    29    1
   152   178   177    1
   153    26    29    1
   154   176   177    1
   155   144   145    1
   156   147   146    2
   157   177   180    1
   158   163   162    1
   159   145   146    1
   160   145   148    1
   161   146   158   am
   162   158   159    1
   163   159   160    1
   164   180   182    1
   165   180   181    1
   166   148   149    1
   167   161   160    2
   168   181   183    1
   169   150   149   ar
   170   150   152   ar
   171   149   151   ar
   172    82    79    1
   173   152   153   ar
   174   151   153   ar
   175   151   154   ar
   176    79    78    1
   177    79    80    1
   178   153   155   ar
   179   154   156   ar
   180    81    80    2
   181    80    83   am
   182   155   157   ar
   183   156   157   ar
   184    91    89   am
   185    83    84    1
   186    89    90    2
   187    89    88    1
   188    84    85    1
   189    84    87    1
   190    88    87    1
   191    85    86    2
