@<TRIPOS>MOLECULE
tmp/2fs9C00.pdb
 184 178 0 0 0
SMALL
GASTEIGER

@<TRIPOS>ATOM
      1  N         52.9080    4.9900   78.6190 N.3    20  VAL20      -0.1245
      2  CA        51.8350    5.4780   79.4750 C.3    20  VAL20       0.1561
      3  C         51.1880    6.6640   78.7620 C.2    20  VAL20       0.2260
      4  O         51.8760    7.4490   78.1040 O.2    20  VAL20      -0.2867
      5  CB        52.3670    5.9290   80.8460 C.3    20  VAL20       0.0252
      6  CG1       53.4870    6.9380   80.6670 C.3    20  VAL20       0.0019
      7  CG2       51.2330    6.5290   81.6620 C.3    20  VAL20       0.0019
      8  N         58.1220    4.6940   79.6680 N.3    28  PHE28      -0.1227
      9  CA        58.4300    4.8260   81.0850 C.3    28  PHE28       0.1736
     10  C         59.2620    3.6380   81.5620 C.2    28  PHE28       0.2595
     11  O         59.9720    3.7340   82.5650 O.2    28  PHE28      -0.2718
     12  CB        57.1540    4.9610   81.9290 C.3    28  PHE28       0.0547
     13  CG        56.2370    3.7820   81.8470 C.ar   28  PHE28      -0.0202
     14  CD1       55.2900    3.6890   80.8280 C.ar   28  PHE28      -0.0042
     15  CD2       56.3180    2.7580   82.7900 C.ar   28  PHE28      -0.0042
     16  CE1       54.4260    2.5870   80.7460 C.ar   28  PHE28      -0.0003
     17  CE2       55.4660    1.6550   82.7210 C.ar   28  PHE28      -0.0003
     18  CZ        54.5140    1.5690   81.6930 C.ar   28  PHE28      -0.0000
     19  N         59.1950    2.5300   80.8320 N.am   29  CYS29      -0.1970
     20  CA        59.9460    1.3290   81.1980 C.3    29  CYS29       0.1712
     21  C         60.1740    0.3830   80.0320 C.2    29  CYS29       0.2296
     22  O         59.5300    0.4850   78.9950 O.2    29  CYS29      -0.2864
     23  CB        59.2080    0.5490   82.2840 C.3    29  CYS29       0.0983
     24  SG        59.5180    1.0430   84.0030 S.3    29  CYS29      -0.0798
     25  N         57.7150   -2.7920   89.8400 N.3    44  HIS44      -0.1226
     26  CA        57.6740   -1.3750   90.2050 C.3    44  HIS44       0.1752
     27  C         57.3470   -0.4520   89.0310 C.2    44  HIS44       0.2596
     28  O         57.0450    0.7160   89.2310 O.2    44  HIS44      -0.2718
     29  CB        58.9830   -0.9280   90.8740 C.3    44  HIS44       0.0759
     30  CG        60.0850   -0.6340   89.9100 C.ar   44  HIS44       0.0818
     31  ND1       61.1490   -1.4850   89.7110 N.ar   44  HIS44      -0.2268
     32  CD2       60.2840    0.4190   89.0810 C.ar   44  HIS44       0.1154
     33  CE1       61.9590   -0.9700   88.8040 C.ar   44  HIS44       0.1986
     34  NE2       61.4560    0.1850   88.4050 N.ar   44  HIS44      -0.2212
     35  N         57.4230   -0.9750   87.8100 N.am   45  CYS45      -0.1956
     36  CA        57.0940   -0.1900   86.6250 C.3    45  CYS45       0.1843
     37  C         55.5680   -0.0170   86.5280 C.2    45  CYS45       0.2625
     38  O         55.0780    0.9590   85.9360 O.2    45  CYS45      -0.2714
     39  CB        57.6080   -0.8850   85.3590 C.3    45  CYS45       0.0997
     40  SG        59.3970   -0.7310   85.0050 S.3    45  CYS45      -0.0797
     41  N         54.8210   -0.9580   87.1160 N.am   46  VAL46      -0.1977
     42  CA        53.3610   -0.9060   87.0640 C.3    46  VAL46       0.1596
     43  C         52.6580   -1.0530   88.4010 C.2    46  VAL46       0.2287
     44  O         51.4330   -1.0410   88.4560 O.2    46  VAL46      -0.2864
     45  CB        52.7690   -1.9940   86.1100 C.3    46  VAL46       0.0276
     46  CG1       53.1110   -1.6700   84.6660 C.3    46  VAL46       0.0022
     47  CG2       53.2990   -3.3690   86.4810 C.3    46  VAL46       0.0022
     48  N         46.8930   -0.1100   88.2060 N.3    51  LYS51      -0.1231
     49  CA        46.8550    0.8420   87.1020 C.3    51  LYS51       0.1693
     50  C         45.6690    0.6230   86.1660 C.2    51  LYS51       0.2592
     51  O         45.0860   -0.4640   86.1090 O.2    51  LYS51      -0.2718
     52  CB        48.1360    0.7380   86.2670 C.3    51  LYS51       0.0285
     53  CG        49.4280    0.7390   87.0640 C.3    51  LYS51       0.0035
     54  CD        49.6230    2.0320   87.8310 C.3    51  LYS51       0.0206
     55  CE        50.8880    1.9640   88.6680 C.3    51  LYS51       0.1093
     56  NZ        50.9390    3.0510   89.6850 N.3    51  LYS51      -0.1314
     57  N         45.3270    1.6740   85.4310 N.am   52  ASP52      -0.1974
     58  CA        44.2480    1.6230   84.4660 C.3    52  ASP52       0.1709
     59  C         44.8620    1.0530   83.1950 C.2    52  ASP52       0.2293
     60  O         45.8190    1.6060   82.6580 O.2    52  ASP52      -0.2864
     61  CB        43.7160    3.0300   84.1980 C.3    52  ASP52       0.1436
     62  CG        42.6210    3.0500   83.1490 C.2    52  ASP52       0.3671
     63  OD1       42.1480    4.1620   82.8190 O.co2  52  ASP52      -0.2456
     64  OD2       42.2300    1.9600   82.6580 O.co2  52  ASP52      -0.2456
     65  N         45.3510    3.2020   79.9180 N.3    55  ALA55      -0.1231
     66  CA        46.4380    4.1700   79.8400 C.3    55  ALA55       0.1694
     67  C         47.7900    3.5240   79.5240 C.2    55  ALA55       0.2591
     68  O         48.8180    4.1960   79.4680 O.2    55  ALA55      -0.2718
     69  CB        46.5190    4.9510   81.1540 C.3    55  ALA55       0.0304
     70  N         47.7850    2.2200   79.2930 N.am   56  LEU56      -0.1980
     71  CA        49.0220    1.5010   79.0230 C.3    56  LEU56       0.1596
     72  C         49.0710    0.8350   77.6460 C.2    56  LEU56       0.2287
     73  O         48.0680    0.3110   77.1620 O.2    56  LEU56      -0.2864
     74  CB        49.2200    0.4530   80.1170 C.3    56  LEU56       0.0297
     75  CG        50.2980   -0.6210   79.9550 C.3    56  LEU56       0.0022
     76  CD1       51.6680    0.0000   80.0730 C.3    56  LEU56       0.0001
     77  CD2       50.1130   -1.6950   81.0240 C.3    56  LEU56       0.0001
     78  N         58.1310   -2.9060   97.0950 N.3    85  THR85      -0.1203
     79  CA        59.1780   -1.9790   96.6530 C.3    85  THR85       0.1994
     80  C         60.3340   -2.7940   96.0820 C.2    85  THR85       0.2618
     81  O         60.5800   -3.9350   96.4990 O.2    85  THR85      -0.2717
     82  CB        59.7470   -1.1010   97.7940 C.3    85  THR85       0.1784
     83  OG1       60.7130   -1.8560   98.5400 O.3    85  THR85      -0.2211
     84  CG2       58.6170   -0.6180   98.7120 C.3    85  THR85       0.0376
     85  N         61.0510   -2.2030   95.1370 N.am   86  ALA86      -0.1965
     86  CA        62.1660   -2.8940   94.5040 C.3    86  ALA86       0.1728
     87  C         63.2360   -3.4000   95.4820 C.2    86  ALA86       0.2616
     88  O         63.7920   -4.4730   95.2880 O.2    86  ALA86      -0.2715
     89  CB        62.7970   -1.9880   93.4700 C.3    86  ALA86       0.0334
     90  N         63.5270   -2.6290   96.5280 N.am   87  GLN87      -0.1977
     91  CA        64.5430   -3.0300   97.5020 C.3    87  GLN87       0.1601
     92  C         64.1160   -4.2330   98.3330 C.2    87  GLN87       0.2287
     93  O         64.9530   -5.0330   98.7500 O.2    87  GLN87      -0.2864
     94  CB        64.8870   -1.8780   98.4440 C.3    87  GLN87       0.0394
     95  CG        65.6700   -0.7380   97.8160 C.3    87  GLN87       0.0908
     96  CD        64.8000    0.1990   96.9980 C.2    87  GLN87       0.2608
     97  OE1       63.6020    0.3510   97.2610 O.2    87  GLN87      -0.2717
     98  NE2       65.4040    0.8470   96.0080 N.am   87  GLN87      -0.0878
     99  N         76.4660   -0.0340   82.8170 N.3   188  ASP188     -0.1225
    100  CA        75.3320   -0.2530   83.7030 C.3   188  ASP188      0.1805
    101  C         74.0180    0.1930   83.0500 C.2   188  ASP188      0.2598
    102  O         74.0200    0.9370   82.0730 O.2   188  ASP188     -0.2718
    103  CB        75.5790    0.5290   85.0110 C.3   188  ASP188      0.1424
    104  CG        74.6600    0.1080   86.1600 C.2   188  ASP188      0.3668
    105  OD1       73.8950   -0.8690   86.0220 O.co2 188  ASP188     -0.2456
    106  OD2       74.7170    0.7650   87.2190 O.co2 188  ASP188     -0.2456
    107  N         72.9000   -0.2840   83.5890 N.am  189  SER189     -0.1938
    108  CA        71.5800    0.0930   83.0970 C.3   189  SER189      0.2055
    109  C         71.2090    1.3290   83.9160 C.2   189  SER189      0.2643
    110  O         71.8230    1.5880   84.9500 O.2   189  SER189     -0.2714
    111  CB        70.5810   -1.0490   83.3240 C.3   189  SER189      0.2130
    112  OG        70.7140   -1.5730   84.6300 O.3   189  SER189     -0.2179
    113  N         70.2140    2.0920   83.4810 N.am  190  CYS190     -0.1953
    114  CA        69.8820    3.3140   84.2030 C.3   190  CYS190      0.1843
    115  C         68.3900    3.6500   84.1270 C.2   190  CYS190      0.2625
    116  O         67.6250    2.9130   83.5100 O.2   190  CYS190     -0.2714
    117  CB        70.7300    4.4470   83.6170 C.3   190  CYS190      0.0997
    118  SG        71.0030    5.8900   84.6850 S.3   190  CYS190     -0.0797
    119  N         67.9770    4.7470   84.7640 N.am  191  GLN191     -0.1963
    120  CA        66.5690    5.1620   84.7550 C.3   191  GLN191      0.1733
    121  C         65.9930    5.1110   83.3470 C.2   191  GLN191      0.2616
    122  O         66.4890    5.7740   82.4340 O.2   191  GLN191     -0.2715
    123  CB        66.4130    6.5830   85.3150 C.3   191  GLN191      0.0408
    124  CG        66.4330    6.6820   86.8470 C.3   191  GLN191      0.0908
    125  CD        67.7460    6.2080   87.4900 C.2   191  GLN191      0.2608
    126  OE1       68.8390    6.5830   87.0570 O.2   191  GLN191     -0.2717
    127  NE2       67.6340    5.3970   88.5400 N.am  191  GLN191     -0.0878
    128  N         64.9360    4.3210   83.1860 N.am  192  GLY192     -0.1955
    129  CA        64.3040    4.1670   81.8870 C.3   192  GLY192      0.1869
    130  C         64.5480    2.7900   81.2960 C.2   192  GLY192      0.2309
    131  O         63.9030    2.3950   80.3260 O.2   192  GLY192     -0.2863
    132  N         64.5210    0.1360   83.3760 N.3   194  SER194     -0.1217
    133  CA        63.7340   -0.6980   84.2840 C.3   194  SER194      0.1889
    134  C         62.7300   -1.6010   83.5780 C.2   194  SER194      0.2288
    135  O         62.0370   -1.1790   82.6480 O.2   194  SER194     -0.2866
    136  CB        62.9790    0.1740   85.2930 C.3   194  SER194      0.2089
    137  OG        63.8470    0.6540   86.3040 O.3   194  SER194     -0.2183
    138  N         65.9050   -5.5680   84.7490 N.3   212  VAL212     -0.1231
    139  CA        66.4670   -4.3600   85.3480 C.3   212  VAL212      0.1692
    140  C         65.5360   -3.9330   86.4800 C.2   212  VAL212      0.2593
    141  O         64.3520   -3.6900   86.2550 O.2   212  VAL212     -0.2718
    142  CB        66.5910   -3.2330   84.3170 C.3   212  VAL212      0.0266
    143  CG1       67.2060   -2.0040   84.9650 C.3   212  VAL212      0.0020
    144  CG2       67.4720   -3.6910   83.1690 C.3   212  VAL212      0.0020
    145  N         66.0680   -3.8740   87.7000 N.am  213  SER213     -0.1938
    146  CA        65.2610   -3.5180   88.8630 C.3   213  SER213      0.2055
    147  C         65.6320   -2.1800   89.5200 C.2   213  SER213      0.2643
    148  O         64.9440   -1.1780   89.3330 O.2   213  SER213     -0.2714
    149  CB        65.3290   -4.6430   89.8980 C.3   213  SER213      0.2130
    150  OG        64.4220   -4.4160   90.9670 O.3   213  SER213     -0.2179
    151  N         66.7150   -2.1500   90.2810 N.am  214  TRP214     -0.1959
    152  CA        67.0970   -0.9130   90.9470 C.3   214  TRP214      0.1771
    153  C         68.5990   -0.8010   91.1270 C.2   214  TRP214      0.2620
    154  O         69.3600   -1.6370   90.6510 O.2   214  TRP214     -0.2715
    155  CB        66.4230   -0.8170   92.3170 C.3   214  TRP214      0.0590
    156  CG        66.8140   -1.9270   93.2650 C.ar  214  TRP214      0.0006
    157  CD1       66.4220   -3.2360   93.2060 C.ar  214  TRP214      0.0946
    158  CD2       67.6990   -1.8270   94.3900 C.ar  214  TRP214      0.0152
    159  NE1       67.0090   -3.9600   94.2230 N.ar  214  TRP214     -0.2442
    160  CE2       67.7970   -3.1170   94.9630 C.ar  214  TRP214      0.0810
    161  CE3       68.4180   -0.7730   94.9700 C.ar  214  TRP214      0.0012
    162  CZ2       68.5840   -3.3770   96.0860 C.ar  214  TRP214      0.0191
    163  CZ3       69.2010   -1.0350   96.0890 C.ar  214  TRP214      0.0001
    164  CH2       69.2760   -2.3280   96.6330 C.ar  214  TRP214      0.0015
    165  N         69.0180    0.2510   91.8150 N.am  215  GLY215     -0.1954
    166  CA        70.4300    0.4540   92.0550 C.3   215  GLY215      0.1869
    167  C         70.6420    1.8330   92.6250 C.2   215  GLY215      0.2309
    168  O         69.7870    2.6930   92.4540 O.2   215  GLY215     -0.2863
    169  N         71.9580    4.9460   92.0230 N.3   217  GLY217     -0.1225
    170  CA        72.5100    5.6810   90.9050 C.3   217  GLY217      0.1811
    171  C         72.7360    4.7410   89.7350 C.2   217  GLY217      0.2280
    172  O         72.1030    3.6830   89.6370 O.2   217  GLY217     -0.2866
    173  N         74.5020   -2.5080   89.3530 N.3   225  GLY225     -0.1210
    174  CA        73.0810   -2.5320   89.0820 C.3   225  GLY225      0.1956
    175  C         72.4610   -3.8040   89.6120 C.2   225  GLY225      0.2611
    176  O         73.0100   -4.8940   89.4580 O.2   225  GLY225     -0.2717
    177  N         71.3120   -3.6670   90.2520 N.am  226  ILE226     -0.1979
    178  CA        70.6130   -4.8160   90.7970 C.3   226  ILE226      0.1595
    179  C         69.4820   -5.2450   89.8710 C.2   226  ILE226      0.2287
    180  O         68.7210   -4.4140   89.3720 O.2   226  ILE226     -0.2864
    181  CB        70.0420   -4.4980   92.1930 C.3   226  ILE226      0.0276
    182  CG1       71.1500   -3.9410   93.0910 C.3   226  ILE226      0.0022
    183  CG2       69.4400   -5.7540   92.8070 C.3   226  ILE226      0.0022
    184  CD1       72.3400   -4.8150   93.1570 C.3   226  ILE226      0.0001
@<TRIPOS>BOND
     1    73    72    2
     2    72    71    1
     3     4     3    2
     4     1     2    1
     5     3     2    1
     6    22    21    2
     7    71    70    1
     8    71    74    1
     9    70    67   am
    10    68    67    2
    11     2     5    1
    12    67    66    1
    13     8     9    1
    14    66    65    1
    15    66    69    1
    16    75    76    1
    17    75    74    1
    18    75    77    1
    19    21    20    1
    20   131   130    2
    21     6     5    1
    22    16    14   ar
    23    16    18   ar
    24    14    13   ar
    25    19    20    1
    26    19    10   am
    27     5     7    1
    28     9    10    1
    29     9    12    1
    30    20    23    1
    31   130   129    1
    32    10    11    2
    33    18    17   ar
    34    13    12    1
    35    13    15   ar
    36   129   128    1
    37   102   101    2
    38    23    24    1
    39   122   121    2
    40   135   134    2
    41    64    62   ar
    42    60    59    2
    43    17    15   ar
    44    99   100    1
    45    63    62   ar
    46   101   107   am
    47   101   100    1
    48   108   111    1
    49   108   107    1
    50   108   109    1
    51    62    61    1
    52   144   142    1
    53   128   121   am
    54    59    58    1
    55   111   112    1
    56   121   120    1
    57   132   133    1
    58   113   109   am
    59   113   114    1
    60   116   115    2
    61   134   133    1
    62   117   114    1
    63   117   118    1
    64   100   103    1
    65   109   110    2
    66    24    40    1
    67   115   114    1
    68   115   119   am
    69    61    58    1
    70   133   136    1
    71   142   143    1
    72   142   139    1
    73    58    57    1
    74    46    45    1
    75   138   139    1
    76   120   119    1
    77   120   123    1
    78    40    39    1
    79   103   104    1
    80   136   137    1
    81   123   124    1
    82   139   140    1
    83    39    36    1
    84    57    50   am
    85    38    37    2
    86   105   104   ar
    87    51    50    2
    88    45    47    1
    89    45    42    1
    90   104   106   ar
    91    50    49    1
    92   141   140    2
    93    52    53    1
    94    52    49    1
    95   140   145   am
    96    37    36    1
    97    37    41   am
    98    36    35    1
    99   124   125    1
   100   126   125    2
   101    42    41    1
   102    42    43    1
   103    53    54    1
   104    49    48    1
   105   125   127   am
   106   145   146    1
   107    35    27   am
   108    54    55    1
   109    43    44    2
   110    34    33   ar
   111    34    32   ar
   112    55    56    1
   113    33    31   ar
   114   146   147    1
   115   146   149    1
   116    27    28    2
   117    27    26    1
   118    32    30   ar
   119   174   173    1
   120   174   175    1
   121   148   147    2
   122   180   179    2
   123   176   175    2
   124   147   151   am
   125   175   177   am
   126   172   171    2
   127    31    30   ar
   128   171   170    1
   129    25    26    1
   130   179   178    1
   131   149   150    1
   132    30    29    1
   133    26    29    1
   134   177   178    1
   135   151   152    1
   136   154   153    2
   137   178   181    1
   138   170   169    1
   139   152   153    1
   140   152   155    1
   141   153   165   am
   142   165   166    1
   143   166   167    1
   144   181   183    1
   145   181   182    1
   146   155   156    1
   147   168   167    2
   148   182   184    1
   149   157   156   ar
   150   157   159   ar
   151   156   158   ar
   152    89    86    1
   153   159   160   ar
   154   158   160   ar
   155   158   161   ar
   156    86    85    1
   157    86    87    1
   158   160   162   ar
   159   161   163   ar
   160    85    80   am
   161    88    87    2
   162    87    90   am
   163    98    96   am
   164    80    81    2
   165    80    79    1
   166   162   164   ar
   167   163   164   ar
   168    90    91    1
   169    79    78    1
   170    79    82    1
   171    96    97    2
   172    96    95    1
   173    91    92    1
   174    91    94    1
   175    82    83    1
   176    82    84    1
   177    95    94    1
   178    92    93    2
