@<TRIPOS>MOLECULE
tmp/2fsgB00.pdb
 131 123 0 0 0
SMALL
GASTEIGER

@<TRIPOS>ATOM
      1  N         40.0010   18.6720   11.1480 N.3    65  GLY65      -0.1225
      2  CA        41.1540   19.5040   11.0510 C.3    65  GLY65       0.1811
      3  C         42.3240   18.5800   10.6980 C.2    65  GLY65       0.2280
      4  O         43.4060   18.9300   10.8580 O.2    65  GLY65      -0.2866
      5  N         44.2320   15.6630    7.8520 N.3    66  ARG66      -0.1245
      6  CA        44.3080   15.1950    6.4780 C.3    66  ARG66       0.1563
      7  C         45.1660   13.9580    6.4480 C.2    66  ARG66       0.2260
      8  O         46.3410   14.0270    6.7030 O.2    66  ARG66      -0.2867
      9  CB        45.0140   16.2400    5.6550 C.3    66  ARG66       0.0307
     10  CG        45.1640   15.8590    4.2260 C.3    66  ARG66       0.0489
     11  CD        45.8730   17.0110    3.4590 C.3    66  ARG66       0.2205
     12  NE        46.0380   16.5910    2.0760 N.pl3  66  ARG66      -0.0865
     13  CZ        47.0490   15.9000    1.6100 C.cat  66  ARG66       0.5346
     14  NH1       47.9950   15.4230    2.4000 N.pl3  66  ARG66       0.1354
     15  NH2       47.0470   15.6070    0.3490 N.pl3  66  ARG66       0.1354
     16  N         47.5320   11.1450    5.8410 N.3    68  PHE68      -0.1241
     17  CA        48.8570   11.0820    5.1870 C.3    68  PHE68       0.1605
     18  C         48.8190    9.9570    4.0780 C.2    68  PHE68       0.2264
     19  O         47.9420    9.1020    4.0830 O.2    68  PHE68      -0.2867
     20  CB        49.9070   10.7150    6.2340 C.3    68  PHE68       0.0534
     21  CG        50.0640   11.7310    7.3800 C.ar   68  PHE68      -0.0203
     22  CD1       50.1160   13.0290    7.1670 C.ar   68  PHE68      -0.0042
     23  CD2       50.2160   11.3080    8.6730 C.ar   68  PHE68      -0.0042
     24  CE1       50.3950   13.9670    8.2350 C.ar   68  PHE68      -0.0003
     25  CE2       50.3300   12.2280    9.7690 C.ar   68  PHE68      -0.0003
     26  CZ        50.4440   13.5990    9.4880 C.ar   68  PHE68      -0.0000
     27  N         48.7450    6.5120    5.3040 N.3    71  GLN71      -0.1245
     28  CA        47.4850    6.2040    5.8520 C.3    71  GLN71       0.1566
     29  C         46.5370    5.7510    4.8040 C.2    71  GLN71       0.2260
     30  O         45.8010    4.7700    4.9900 O.2    71  GLN71      -0.2867
     31  CB        46.9430    7.3650    6.6170 C.3    71  GLN71       0.0367
     32  CG        47.8680    7.8010    7.8640 C.3    71  GLN71       0.0905
     33  CD        47.1370    8.8800    8.7550 C.2    71  GLN71       0.2608
     34  OE1       46.8000    9.9560    8.2610 O.2    71  GLN71      -0.2717
     35  NE2       46.9700    8.6080   10.0430 N.am   71  GLN71      -0.0878
     36  N         53.5590    2.3280   15.8730 N.3    86  THR86      -0.1203
     37  CA        53.0020    3.1330   16.9400 C.3    86  THR86       0.1994
     38  C         53.2450    4.5890   16.5680 C.2    86  THR86       0.2618
     39  O         54.3440    4.9520   16.2100 O.2    86  THR86      -0.2717
     40  CB        53.7560    2.8410   18.2620 C.3    86  THR86       0.1784
     41  OG1       53.1940    1.7030   18.9070 O.3    86  THR86      -0.2211
     42  CG2       53.6210    3.9450   19.2530 C.3    86  THR86       0.0376
     43  N         52.2160    5.4080   16.6260 N.am   87  GLY87      -0.1942
     44  CA        52.4020    6.8180   16.2580 C.3    87  GLY87       0.2014
     45  C         52.0340    7.1510   14.8160 C.2    87  GLY87       0.2639
     46  O         52.1700    8.3070   14.4070 O.2    87  GLY87      -0.2714
     47  N         51.6490    6.1610   14.0200 N.am   88  GLU88      -0.1963
     48  CA        51.4210    6.3470   12.5840 C.3    88  GLU88       0.1733
     49  C         50.0380    6.7420   12.3030 C.2    88  GLU88       0.2617
     50  O         49.6950    7.0490   11.1710 O.2    88  GLU88      -0.2715
     51  CB        51.8680    5.0950   11.7860 C.3    88  GLU88       0.0429
     52  CG        53.4390    5.0280   11.8010 C.3    88  GLU88       0.1163
     53  CD        54.1550    6.2730   11.1140 C.2    88  GLU88       0.3649
     54  OE1       53.7630    6.6320    9.9670 O.co2  88  GLU88      -0.2457
     55  OE2       55.1080    6.8650   11.6700 O.co2  88  GLU88      -0.2457
     56  N         49.1920    6.7500   13.3280 N.am   89  GLY89      -0.1940
     57  CA        47.7720    7.0600   13.1600 C.3    89  GLY89       0.2014
     58  C         46.8140    5.9970   12.7260 C.2    89  GLY89       0.2639
     59  O         45.9760    6.2240   11.7790 O.2    89  GLY89      -0.2714
     60  N         46.7680    4.8860   13.4760 N.am   90  LYS90      -0.1963
     61  CA        45.8200    3.7820   13.1870 C.3    90  LYS90       0.1728
     62  C         44.4030    4.1970   13.2450 C.2    90  LYS90       0.2617
     63  O         43.5770    3.7740   12.4800 O.2    90  LYS90      -0.2715
     64  CB        46.0400    2.6380   14.1460 C.3    90  LYS90       0.0311
     65  CG        47.2790    1.8050   13.8350 C.3    90  LYS90       0.0038
     66  CD        47.5550    0.6340   14.8440 C.3    90  LYS90       0.0206
     67  CE        48.9690    0.3610   15.0800 C.3    90  LYS90       0.1093
     68  NZ        49.9470    1.5890   15.2770 N.3    90  LYS90      -0.1314
     69  N         44.0540    4.9810   14.2260 N.am   91  THR91      -0.1937
     70  CA        42.6590    5.2820   14.4150 C.3    91  THR91       0.2028
     71  C         42.0690    6.1750   13.2740 C.2    91  THR91       0.2642
     72  O         40.9850    5.8790   12.7690 O.2    91  THR91      -0.2714
     73  CB        42.4860    6.0030   15.8980 C.3    91  THR91       0.1808
     74  OG1       42.9060    5.0710   16.9410 O.3    91  THR91      -0.2208
     75  CG2       41.0400    6.3440   16.0920 C.3    91  THR91       0.0379
     76  N         42.7870    7.2210   12.8350 N.am   92  LEU92      -0.1977
     77  CA        42.3960    7.9000   11.5560 C.3    92  LEU92       0.1596
     78  C         42.4580    6.9820   10.3370 C.2    92  LEU92       0.2287
     79  O         41.5350    6.8920    9.4790 O.2    92  LEU92      -0.2864
     80  CB        43.2350    9.1060   11.3030 C.3    92  LEU92       0.0297
     81  CG        42.6960   10.2070   10.2880 C.3    92  LEU92       0.0022
     82  CD1       41.4470   10.6690   10.7080 C.3    92  LEU92       0.0001
     83  CD2       43.6700   11.3520   10.1940 C.3    92  LEU92       0.0001
     84  N         34.3560    6.1400   22.7950 N.3   120  ARG120     -0.1245
     85  CA        35.2090    7.2020   22.3670 C.3   120  ARG120      0.1563
     86  C         35.3060    7.3040   20.8950 C.2   120  ARG120      0.2260
     87  O         35.2350    8.4440   20.3610 O.2   120  ARG120     -0.2867
     88  CB        36.6380    7.0500   22.9560 C.3   120  ARG120      0.0307
     89  CG        37.5190    8.3250   22.7670 C.3   120  ARG120      0.0489
     90  CD        38.9900    8.0680   22.8170 C.3   120  ARG120      0.2205
     91  NE        39.4290    7.2270   21.7490 N.pl3 120  ARG120     -0.0865
     92  CZ        40.6810    6.7880   21.5410 C.cat 120  ARG120      0.5346
     93  NH1       41.6870    7.1310   22.3280 N.pl3 120  ARG120      0.1354
     94  NH2       40.9090    6.0160   20.5100 N.pl3 120  ARG120      0.1354
     95  N         40.8170   -3.7360   15.6990 N.3   189  ASP189     -0.1225
     96  CA        41.7030   -2.6190   15.9910 C.3   189  ASP189      0.1805
     97  C         43.0570   -2.9590   16.4890 C.2   189  ASP189      0.2597
     98  O         43.9890   -2.2130   16.2220 O.2   189  ASP189     -0.2718
     99  CB        41.1260   -1.6220   17.0130 C.3   189  ASP189      0.1424
    100  CG        40.2060   -0.5970   16.3620 C.2   189  ASP189      0.3668
    101  OD1       40.0670   -0.5420   15.0990 O.co2 189  ASP189     -0.2456
    102  OD2       39.5650    0.1570   17.1160 O.co2 189  ASP189     -0.2456
    103  N         43.1550   -4.0220   17.2470 N.am  190  GLU190     -0.1979
    104  CA        44.4440   -4.4910   17.7170 C.3   190  GLU190      0.1602
    105  C         44.4460   -6.0310   17.6740 C.2   190  GLU190      0.2287
    106  O         44.0260   -6.7290   18.6260 O.2   190  GLU190     -0.2864
    107  CB        44.8580   -3.7930   19.0430 C.3   190  GLU190      0.0415
    108  CG        44.7110   -4.4690   20.4310 C.3   190  GLU190      0.1163
    109  CD        45.1790   -3.5130   21.7360 C.2   190  GLU190      0.3649
    110  OE1       45.0450   -2.2510   21.5920 O.co2 190  GLU190     -0.2457
    111  OE2       45.6110   -4.0300   22.8570 O.co2 190  GLU190     -0.2457
    112  N         52.5460   -0.6180   22.9300 N.3   402  ARG402     -0.1245
    113  CA        52.2690    0.7930   22.6000 C.3   402  ARG402      0.1563
    114  C         52.9060    1.7490   23.6820 C.2   402  ARG402      0.2260
    115  O         53.9820    2.3240   23.4360 O.2   402  ARG402     -0.2867
    116  CB        50.7390    1.0290   22.3440 C.3   402  ARG402      0.0307
    117  CG        50.3110    2.5170   21.8400 C.3   402  ARG402      0.0489
    118  CD        49.7100    2.6330   20.3310 C.3   402  ARG402      0.2205
    119  NE        50.5480    2.1040   19.2190 N.pl3 402  ARG402     -0.0865
    120  CZ        50.2590    1.0010   18.5090 C.cat 402  ARG402      0.5346
    121  NH1       49.1330    0.3400   18.7610 N.pl3 402  ARG402      0.1354
    122  NH2       51.0620    0.5310   17.5470 N.pl3 402  ARG402      0.1354
    123  N         58.1340    8.7430   14.7230 N.3   471  GLN471     -0.1245
    124  CA        57.9450    9.8400   13.7210 C.3   471  GLN471      0.1566
    125  C         59.1450   10.5100   13.2560 C.2   471  GLN471      0.2260
    126  O         59.2490   11.7140   13.1970 O.2   471  GLN471     -0.2867
    127  CB        56.9120   10.8030   14.2270 C.3   471  GLN471      0.0367
    128  CG        55.5560   10.0700   14.1220 C.3   471  GLN471      0.0905
    129  CD        54.8610   10.0790   15.4080 C.2   471  GLN471      0.2608
    130  OE1       54.1960   11.1300   15.7860 O.2   471  GLN471     -0.2717
    131  NE2       55.0370    8.9600   16.1770 N.am  471  GLN471     -0.0878
@<TRIPOS>BOND
     1    15    13    1
     2    13    12    2
     3    13    14    1
     4    12    11    1
     5    11    10    1
     6    18    19    2
     7    18    17    1
     8    10     9    1
     9    29    30    2
    10    29    28    1
    11    17    16    1
    12    17    20    1
    13    27    28    1
    14     9     6    1
    15    28    31    1
    16    20    21    1
    17     7     6    1
    18     7     8    2
    19     6     5    1
    20    31    32    1
    21    22    21   ar
    22    22    24   ar
    23    21    23   ar
    24    32    33    1
    25    24    26   ar
    26    34    33    2
    27    23    25   ar
    28    33    35   am
    29    79    78    2
    30    26    25   ar
    31    54    53   ar
    32    83    81    1
    33    81    82    1
    34    81    80    1
    35    78    77    1
    36     3     4    2
    37     3     2    1
    38     2     1    1
    39    53    55   ar
    40    53    52    1
    41    50    49    2
    42    80    77    1
    43    77    76    1
    44    59    58    2
    45    51    52    1
    46    51    48    1
    47    49    48    1
    48    49    56   am
    49    63    62    2
    50    48    47    1
    51    58    57    1
    52    58    60   am
    53    72    71    2
    54    76    71   am
    55    57    56    1
    56    61    62    1
    57    61    60    1
    58    61    64    1
    59   126   125    2
    60    62    69   am
    61   125   124    1
    62    71    70    1
    63   124   127    1
    64   124   123    1
    65    65    64    1
    66    65    66    1
    67    47    45   am
    68   128   127    1
    69   128   129    1
    70    69    70    1
    71    46    45    2
    72    70    73    1
    73    45    44    1
    74    66    67    1
    75    67    68    1
    76   101   100   ar
    77   129   130    2
    78   129   131   am
    79    95    96    1
    80    36    37    1
    81    73    75    1
    82    73    74    1
    83    96    97    1
    84    96    99    1
    85    39    38    2
    86    98    97    2
    87    44    43    1
    88   100    99    1
    89   100   102   ar
    90    97   103   am
    91    38    43   am
    92    38    37    1
    93    37    40    1
    94   103   104    1
    95   122   120    1
    96   105   104    1
    97   105   106    2
    98   104   107    1
    99    40    41    1
   100    40    42    1
   101   120   121    1
   102   120   119    2
   103   107   108    1
   104   119   118    1
   105   118   117    1
   106    87    86    2
   107   108   109    1
   108    94    92    1
   109    86    85    1
   110    92    91    2
   111    92    93    1
   112   110   109   ar
   113   109   111   ar
   114    91    90    1
   115   117   116    1
   116   116   113    1
   117    85    84    1
   118    85    88    1
   119   113   112    1
   120   113   114    1
   121    89    90    1
   122    89    88    1
   123   115   114    2
