@<TRIPOS>MOLECULE
tmp/2fsgA00.pdb
 130 122 0 0 0
SMALL
GASTEIGER

@<TRIPOS>ATOM
      1  N         56.6460   31.1180   44.4070 N.3    62  GLY62      -0.1225
      2  CA        55.4360   31.7210   43.9620 C.3    62  GLY62       0.1811
      3  C         54.2630   31.2440   44.7850 C.2    62  GLY62       0.2280
      4  O         53.1480   31.4020   44.3740 O.2    62  GLY62      -0.2866
      5  N         52.6420   31.2230   48.8870 N.3    63  ARG63      -0.1245
      6  CA        52.5310   31.7310   50.2690 C.3    63  ARG63       0.1563
      7  C         51.7560   30.6950   51.0710 C.2    63  ARG63       0.2260
      8  O         50.5700   30.5320   50.8170 O.2    63  ARG63      -0.2867
      9  CB        51.7020   33.0510   50.3370 C.3    63  ARG63       0.0307
     10  CG        52.0410   33.8660   51.5710 C.3    63  ARG63       0.0489
     11  CD        51.3140   35.2370   51.6770 C.3    63  ARG63       0.2205
     12  NE        50.0840   34.8670   52.2910 N.pl3  63  ARG63      -0.0865
     13  CZ        49.6270   35.2360   53.4700 C.cat  63  ARG63       0.5346
     14  NH1       50.1990   36.1850   54.1750 N.pl3  63  ARG63       0.1354
     15  NH2       48.4690   34.7220   53.8560 N.pl3  63  ARG63       0.1354
     16  N         49.4190   29.1190   53.4930 N.3    65  PHE65      -0.1241
     17  CA        48.1670   29.5520   54.1400 C.3    65  PHE65       0.1605
     18  C         48.2010   29.3960   55.6720 C.2    65  PHE65       0.2264
     19  O         49.0030   28.6570   56.2400 O.2    65  PHE65      -0.2867
     20  CB        46.9250   28.7820   53.6600 C.3    65  PHE65       0.0534
     21  CG        46.8070   28.5240   52.1600 C.ar   65  PHE65      -0.0203
     22  CD1       46.6070   29.5370   51.2530 C.ar   65  PHE65      -0.0042
     23  CD2       46.6960   27.1930   51.7000 C.ar   65  PHE65      -0.0042
     24  CE1       46.3580   29.2530   49.8600 C.ar   65  PHE65      -0.0003
     25  CE2       46.4900   26.9020   50.3780 C.ar   65  PHE65      -0.0003
     26  CZ        46.3070   27.9380   49.4350 C.ar   65  PHE65      -0.0000
     27  N         48.3050   25.9700   57.0780 N.3    68  GLN68      -0.1245
     28  CA        49.6180   25.3950   56.8330 C.3    68  GLN68       0.1566
     29  C         50.6660   25.7770   57.8740 C.2    68  GLN68       0.2260
     30  O         51.5890   24.9620   58.1530 O.2    68  GLN68      -0.2867
     31  CB        50.0840   25.6580   55.3890 C.3    68  GLN68       0.0367
     32  CG        49.1740   24.8810   54.2960 C.3    68  GLN68       0.0905
     33  CD        49.6000   25.2410   52.8470 C.2    68  GLN68       0.2608
     34  OE1       49.7750   26.4420   52.5320 O.2    68  GLN68      -0.2717
     35  NE2       49.8720   24.2060   51.9970 N.am   68  GLN68      -0.0878
     36  N         43.3860   15.6900   52.0150 N.3    83  THR83      -0.1203
     37  CA        43.9270   15.6830   50.6460 C.3    83  THR83       0.1994
     38  C         43.6780   17.0200   49.9600 C.2    83  THR83       0.2618
     39  O         42.5830   17.6440   50.0100 O.2    83  THR83      -0.2717
     40  CB        43.3320   14.5100   49.7560 C.3    83  THR83       0.1784
     41  OG1       43.6780   13.3250   50.4140 O.3    83  THR83      -0.2211
     42  CG2       43.9860   14.4020   48.3770 C.3    83  THR83       0.0376
     43  N         44.7900   17.4720   49.3830 N.am   84  GLY84      -0.1942
     44  CA        44.7930   18.6670   48.5690 C.3    84  GLY84       0.2014
     45  C         45.2260   19.8350   49.3790 C.2    84  GLY84       0.2639
     46  O         45.2860   20.8720   48.8360 O.2    84  GLY84      -0.2714
     47  N         45.5120   19.6610   50.6700 N.am   85  GLU85      -0.1963
     48  CA        45.7600   20.8050   51.5670 C.3    85  GLU85       0.1733
     49  C         47.1780   21.2940   51.5510 C.2    85  GLU85       0.2617
     50  O         47.4870   22.2860   52.2400 O.2    85  GLU85      -0.2715
     51  CB        45.3270   20.4790   53.0420 C.3    85  GLU85       0.0429
     52  CG        43.7870   20.4000   53.2410 C.3    85  GLU85       0.1163
     53  CD        43.0330   21.7130   52.9530 C.2    85  GLU85       0.3649
     54  OE1       43.3800   22.7100   53.5930 O.co2  85  GLU85      -0.2457
     55  OE2       42.0880   21.7390   52.1050 O.co2  85  GLU85      -0.2457
     56  N         48.0710   20.5810   50.8760 N.am   86  GLY86      -0.1940
     57  CA        49.4340   21.0460   50.6390 C.3    86  GLY86       0.2014
     58  C         50.3980   20.6230   51.7250 C.2    86  GLY86       0.2639
     59  O         51.1280   21.4790   52.3160 O.2    86  GLY86      -0.2714
     60  N         50.3300   19.3200   52.0310 N.am   87  LYS87      -0.1963
     61  CA        51.2120   18.6990   52.9980 C.3    87  LYS87       0.1728
     62  C         52.6290   18.8970   52.7100 C.2    87  LYS87       0.2617
     63  O         53.4550   19.0340   53.6140 O.2    87  LYS87      -0.2715
     64  CB        50.9940   17.2390   52.9420 C.3    87  LYS87       0.0311
     65  CG        49.7590   16.7800   53.6700 C.3    87  LYS87       0.0038
     66  CD        49.8230   15.1870   53.6650 C.3    87  LYS87       0.0206
     67  CE        48.4110   14.6130   53.9150 C.3    87  LYS87       0.1093
     68  NZ        47.4790   14.9780   52.7970 N.3    87  LYS87      -0.1314
     69  N         52.9440   18.9420   51.4250 N.am   88  THR88      -0.1937
     70  CA        54.3550   18.9520   51.0040 C.3    88  THR88       0.2028
     71  C         54.9890   20.3100   51.2530 C.2    88  THR88       0.2642
     72  O         56.1220   20.4470   51.6880 O.2    88  THR88      -0.2714
     73  CB        54.4150   18.5050   49.5440 C.3    88  THR88       0.1808
     74  OG1       53.9410   17.1540   49.4580 O.3    88  THR88      -0.2208
     75  CG2       55.8150   18.5830   49.0050 C.3    88  THR88       0.0379
     76  N         54.2430   21.3440   50.9280 N.am   89  LEU89      -0.1977
     77  CA        54.6670   22.7120   51.2850 C.3    89  LEU89       0.1596
     78  C         54.6440   22.9180   52.8020 C.2    89  LEU89       0.2287
     79  O         55.6030   23.4110   53.3890 O.2    89  LEU89      -0.2864
     80  CB        53.8580   23.7670   50.5360 C.3    89  LEU89       0.0297
     81  CG        54.3600   25.2250   50.7150 C.3    89  LEU89       0.0022
     82  CD1       55.7320   25.4380   49.9440 C.3    89  LEU89       0.0001
     83  CD2       53.2670   26.2180   50.3140 C.3    89  LEU89       0.0001
     84  N         62.5420   13.8330   44.0220 N.3   117  ARG117     -0.1245
     85  CA        61.6440   14.8730   43.5820 C.3   117  ARG117      0.1563
     86  C         61.6510   16.0480   44.5700 C.2   117  ARG117      0.2260
     87  O         61.8480   17.1800   44.1950 O.2   117  ARG117     -0.2867
     88  CB        60.2000   14.3670   43.3390 C.3   117  ARG117      0.0307
     89  CG        59.4430   15.4170   42.6570 C.3   117  ARG117      0.0489
     90  CD        57.9860   15.2490   42.7860 C.3   117  ARG117      0.2205
     91  NE        57.4770   15.3110   44.1280 N.pl3 117  ARG117     -0.0865
     92  CZ        56.1990   15.1380   44.4350 C.cat 117  ARG117      0.5346
     93  NH1       55.3340   14.7410   43.5230 N.pl3 117  ARG117      0.1354
     94  NH2       55.8280   15.2290   45.6830 N.pl3 117  ARG117      0.1354
     95  N         56.3090   11.1640   56.0940 N.3   186  ASP186     -0.1225
     96  CA        55.3240   11.7720   55.1380 C.3   186  ASP186      0.1805
     97  C         53.9560   11.1110   55.0430 C.2   186  ASP186      0.2597
     98  O         52.9680   11.8090   54.7150 O.2   186  ASP186     -0.2718
     99  CB        55.8620   11.8210   53.7250 C.3   186  ASP186      0.1424
    100  CG        56.8000   12.9810   53.4920 C.2   186  ASP186      0.3668
    101  OD1       56.9740   13.9510   54.3220 O.co2 186  ASP186     -0.2456
    102  OD2       57.3950   12.9050   52.3980 O.co2 186  ASP186     -0.2456
    103  N         53.9060    9.7830   55.1840 N.am  187  GLU187     -0.1979
    104  CA        52.6390    9.1030   55.0470 C.3   187  GLU187      0.1602
    105  C         52.7190    8.1230   56.1800 C.2   187  GLU187      0.2287
    106  O         53.2120    6.9900   56.0220 O.2   187  GLU187     -0.2864
    107  CB        52.5350    8.3440   53.7220 C.3   187  GLU187      0.0415
    108  CG        51.7440    8.8910   52.6290 C.3   187  GLU187      0.1163
    109  CD        51.6390    7.9070   51.3590 C.2   187  GLU187      0.3649
    110  OE1       51.7240    8.4190   50.1890 O.co2 187  GLU187     -0.2457
    111  OE2       51.4340    6.6370   51.5280 O.co2 187  GLU187     -0.2457
    112  N         44.1750    8.4210   47.9600 N.3   342  ARG342     -0.1245
    113  CA        44.3670    9.7860   47.3270 C.3   342  ARG342      0.1563
    114  C         43.8840    9.9490   45.8780 C.2   342  ARG342      0.2260
    115  O         43.0270   10.7760   45.6260 O.2   342  ARG342     -0.2867
    116  CB        45.8020   10.3710   47.4890 C.3   342  ARG342      0.0307
    117  CG        46.9920    9.6550   46.8020 C.3   342  ARG342      0.0489
    118  CD        47.6810    8.5030   47.7100 C.3   342  ARG342      0.2205
    119  NE        48.2260    8.9890   49.0020 N.pl3 342  ARG342     -0.0865
    120  CZ        48.0340    8.4150   50.1950 C.cat 342  ARG342      0.5346
    121  NH1       48.5800    8.9780   51.2790 N.pl3 342  ARG342      0.1354
    122  NH2       47.3240    7.2810   50.3290 N.pl3 342  ARG342      0.1354
    123  N         43.0700   14.2280   41.6500 N.3   345  ASP345     -0.1239
    124  CA        41.9960   15.2300   41.6810 C.3   345  ASP345      0.1674
    125  C         40.9450   15.2000   40.4960 C.2   345  ASP345      0.2266
    126  O         41.2310   14.9880   39.2900 O.2   345  ASP345     -0.2867
    127  CB        42.5500   16.6890   41.8030 C.3   345  ASP345      0.1410
    128  CG        43.4190   16.9040   43.0630 C.2   345  ASP345      0.3668
    129  OD1       43.5540   15.9780   43.9110 O.co2 345  ASP345     -0.2456
    130  OD2       43.9920   18.0130   43.2120 O.co2 345  ASP345     -0.2456
@<TRIPOS>BOND
     1   126   125    2
     2   125   124    1
     3   123   124    1
     4   124   127    1
     5   127   128    1
     6    89    90    1
     7    89    88    1
     8    90    91    1
     9   128   130   ar
    10   128   129   ar
    11    88    85    1
    12    93    92    1
    13    85    84    1
    14    85    86    1
    15     2     1    1
    16     2     3    1
    17    91    92    2
    18    87    86    2
    19     4     3    2
    20    92    94    1
    21   115   114    2
    22   114   113    1
    23   117   116    1
    24   117   118    1
    25   113   116    1
    26   113   112    1
    27   118   119    1
    28    42    40    1
    29    44    45    1
    30    44    43    1
    31    46    45    2
    32     5     6    1
    33   119   120    2
    34    75    73    1
    35    45    47   am
    36    43    38   am
    37    26    24   ar
    38    26    25   ar
    39    74    73    1
    40    73    70    1
    41    40    41    1
    42    40    37    1
    43    24    22   ar
    44    82    81    1
    45    38    39    2
    46    38    37    1
    47   110   109   ar
    48   120   122    1
    49   120   121    1
    50     6     9    1
    51     6     7    1
    52    83    81    1
    53     9    10    1
    54    25    23   ar
    55    80    81    1
    56    80    77    1
    57    57    56    1
    58    57    58    1
    59    37    36    1
    60    47    48    1
    61     8     7    2
    62    56    49   am
    63    76    71   am
    64    76    77    1
    65    70    71    1
    66    70    69    1
    67    22    21   ar
    68    71    72    2
    69    77    78    1
    70   109   111   ar
    71   109   108    1
    72    69    62   am
    73    49    48    1
    74    49    50    2
    75    48    51    1
    76    10    11    1
    77    11    12    1
    78    23    21   ar
    79    58    60   am
    80    58    59    2
    81    35    33   am
    82    60    61    1
    83    55    53   ar
    84    21    20    1
    85    12    13    2
    86   102   100   ar
    87    34    33    2
    88   108   107    1
    89    62    61    1
    90    62    63    2
    91    68    67    1
    92    78    79    2
    93    33    32    1
    94    64    61    1
    95    64    65    1
    96    53    52    1
    97    53    54   ar
    98    51    52    1
    99    13    15    1
   100    13    14    1
   101   100    99    1
   102   100   101   ar
   103    16    17    1
   104    20    17    1
   105    66    65    1
   106    66    67    1
   107   107   104    1
   108    99    96    1
   109    17    18    1
   110    32    31    1
   111    98    97    2
   112    97    96    1
   113    97   103   am
   114   104   103    1
   115   104   105    1
   116    96    95    1
   117    31    28    1
   118    18    19    2
   119   106   105    2
   120    28    27    1
   121    28    29    1
   122    29    30    2
