@<TRIPOS>MOLECULE
tmp/2fshA00.pdb
 130 124 0 0 0
SMALL
GASTEIGER

@<TRIPOS>ATOM
      1  N         56.2980   31.0480   44.6690 N.3    68  GLY68      -0.1210
      2  CA        55.1120   31.8010   44.3080 C.3    68  GLY68       0.1956
      3  C         53.9630   31.2220   45.0980 C.2    68  GLY68       0.2612
      4  O         52.8220   31.3250   44.6940 O.2    68  GLY68      -0.2717
      5  N         54.2690   30.6110   46.2370 N.am   69  MET69      -0.1965
      6  CA        53.2440   30.0090   47.0930 C.3    69  MET69       0.1736
      7  C         53.4190   30.4470   48.5380 C.2    69  MET69       0.2616
      8  O         54.5000   30.2560   49.1530 O.2    69  MET69      -0.2715
      9  CB        53.2910   28.4950   47.0620 C.3    69  MET69       0.0427
     10  CG        53.0840   27.8710   45.7230 C.3    69  MET69       0.0599
     11  SD        53.0100   26.1050   46.0350 S.3    69  MET69      -0.1393
     12  CE        54.6460   25.4590   46.1350 C.3    69  MET69       0.0692
     13  N         52.3280   30.9710   49.0910 N.am   70  ARG70      -0.1977
     14  CA        52.2840   31.4810   50.4550 C.3    70  ARG70       0.1597
     15  C         51.5230   30.5040   51.3410 C.2    70  ARG70       0.2287
     16  O         50.3490   30.2730   51.1430 O.2    70  ARG70      -0.2864
     17  CB        51.5870   32.8430   50.4700 C.3    70  ARG70       0.0334
     18  CG        51.8530   33.6130   51.7280 C.3    70  ARG70       0.0492
     19  CD        51.0470   34.9160   51.8700 C.3    70  ARG70       0.2205
     20  NE        49.8620   34.5240   52.5710 N.pl3  70  ARG70      -0.0865
     21  CZ        49.4140   34.9640   53.7310 C.cat  70  ARG70       0.5346
     22  NH1       49.9740   35.9250   54.3870 N.pl3  70  ARG70       0.1354
     23  NH2       48.3290   34.3860   54.2230 N.pl3  70  ARG70       0.1354
     24  N         49.1510   28.8650   53.8350 N.3    72  PHE72      -0.1241
     25  CA        47.9450   29.2750   54.4940 C.3    72  PHE72       0.1605
     26  C         48.0650   29.1300   55.9750 C.2    72  PHE72       0.2264
     27  O         48.8720   28.3670   56.4780 O.2    72  PHE72      -0.2867
     28  CB        46.7420   28.4330   54.0680 C.3    72  PHE72       0.0534
     29  CG        46.5200   28.3650   52.5980 C.ar   72  PHE72      -0.0203
     30  CD1       46.3770   29.5080   51.8540 C.ar   72  PHE72      -0.0042
     31  CD2       46.4140   27.1340   51.9720 C.ar   72  PHE72      -0.0042
     32  CE1       46.1900   29.4130   50.5110 C.ar   72  PHE72      -0.0003
     33  CE2       46.2210   27.0180   50.6520 C.ar   72  PHE72      -0.0003
     34  CZ        46.0770   28.1510   49.8930 C.ar   72  PHE72      -0.0000
     35  N         48.1090   25.6870   57.1820 N.3    75  GLN75      -0.1245
     36  CA        49.4110   25.1010   56.9860 C.3    75  GLN75       0.1566
     37  C         50.3590   25.5390   58.0590 C.2    75  GLN75       0.2260
     38  O         51.1910   24.7300   58.4810 O.2    75  GLN75      -0.2867
     39  CB        49.9550   25.3540   55.5700 C.3    75  GLN75       0.0367
     40  CG        49.0830   24.6820   54.4560 C.3    75  GLN75       0.0905
     41  CD        49.4420   25.1150   53.0530 C.2    75  GLN75       0.2608
     42  OE1       49.4100   26.3050   52.7390 O.2    75  GLN75      -0.2717
     43  NE2       49.6930   24.1750   52.1920 N.am   75  GLN75      -0.0878
     44  N         43.0590   15.5490   52.2680 N.3    92  THR92      -0.1203
     45  CA        43.6340   15.5320   50.9110 C.3    92  THR92       0.1994
     46  C         43.3540   16.8620   50.1840 C.2    92  THR92       0.2618
     47  O         42.3060   17.4880   50.3610 O.2    92  THR92      -0.2717
     48  CB        43.1060   14.3610   50.0190 C.3    92  THR92       0.1784
     49  OG1       43.5680   13.1230   50.5550 O.3    92  THR92      -0.2211
     50  CG2       43.7000   14.4620   48.6500 C.3    92  THR92       0.0376
     51  N         44.3640   17.3100   49.4440 N.am   93  GLY93      -0.1942
     52  CA        44.3220   18.5850   48.7450 C.3    93  GLY93       0.2014
     53  C         44.7520   19.7400   49.6330 C.2    93  GLY93       0.2639
     54  O         44.6640   20.9020   49.2220 O.2    93  GLY93      -0.2714
     55  N         45.2110   19.4680   50.8530 N.am   94  GLU94      -0.1963
     56  CA        45.4940   20.5540   51.7570 C.3    94  GLU94       0.1733
     57  C         46.9270   21.0290   51.7320 C.2    94  GLU94       0.2617
     58  O         47.2850   21.9530   52.4530 O.2    94  GLU94      -0.2715
     59  CB        45.0420   20.2210   53.1880 C.3    94  GLU94       0.0429
     60  CG        43.5310   20.2600   53.3500 C.3    94  GLU94       0.1163
     61  CD        42.8800   21.6380   53.1780 C.2    94  GLU94       0.3649
     62  OE1       43.2780   22.6000   53.8770 O.co2  94  GLU94      -0.2457
     63  OE2       41.9250   21.7370   52.3350 O.co2  94  GLU94      -0.2457
     64  N         47.7570   20.4100   50.9200 N.am   95  GLY95      -0.1940
     65  CA        49.0970   20.8670   50.7010 C.3    95  GLY95       0.2014
     66  C         50.0480   20.4530   51.7980 C.2    95  GLY95       0.2639
     67  O         50.8030   21.2670   52.2880 O.2    95  GLY95      -0.2714
     68  N         49.9690   19.1870   52.1780 N.am   96  LYS96      -0.1963
     69  CA        50.8880   18.5900   53.0910 C.3    96  LYS96       0.1728
     70  C         52.3400   18.7170   52.7390 C.2    96  LYS96       0.2617
     71  O         53.1940   18.8570   53.6270 O.2    96  LYS96      -0.2715
     72  CB        50.5150   17.1300   53.3030 C.3    96  LYS96       0.0311
     73  CG        49.1600   17.0390   54.0900 C.3    96  LYS96       0.0038
     74  CD        48.6780   15.6140   54.5520 C.3    96  LYS96       0.0206
     75  CE        47.9440   14.8560   53.4540 C.3    96  LYS96       0.1093
     76  NZ        46.6810   15.4100   52.8370 N.3    96  LYS96      -0.1314
     77  N         52.6490   18.7180   51.4600 N.am   97  THR97      -0.1937
     78  CA        54.0510   18.8070   51.0790 C.3    97  THR97       0.2028
     79  C         54.6570   20.1860   51.4670 C.2    97  THR97       0.2642
     80  O         55.7600   20.3160   52.0640 O.2    97  THR97      -0.2714
     81  CB        54.2130   18.4330   49.5830 C.3    97  THR97       0.1808
     82  OG1       53.8400   17.0780   49.4620 O.3    97  THR97      -0.2208
     83  CG2       55.6660   18.5620   49.0980 C.3    97  THR97       0.0379
     84  N         53.9130   21.2130   51.1140 N.am   98  LEU98      -0.1977
     85  CA        54.3390   22.5820   51.4370 C.3    98  LEU98       0.1596
     86  C         54.3110   22.8170   52.9270 C.2    98  LEU98       0.2287
     87  O         55.2100   23.4010   53.4840 O.2    98  LEU98      -0.2864
     88  CB        53.4300   23.6070   50.7400 C.3    98  LEU98       0.0297
     89  CG        53.8920   25.0650   50.8540 C.3    98  LEU98       0.0022
     90  CD1       55.3560   25.1760   50.3950 C.3    98  LEU98       0.0001
     91  CD2       53.0180   25.9390   50.0730 C.3    98  LEU98       0.0001
     92  N         62.0940   13.7740   44.2120 N.3   126  ARG126     -0.1245
     93  CA        61.2540   14.8070   43.6590 C.3   126  ARG126      0.1563
     94  C         61.1330   15.9450   44.6730 C.2   126  ARG126      0.2260
     95  O         61.3730   17.0910   44.3270 O.2   126  ARG126     -0.2867
     96  CB        59.8720   14.2560   43.3330 C.3   126  ARG126      0.0307
     97  CG        59.0700   15.3030   42.6330 C.3   126  ARG126      0.0489
     98  CD        57.6300   15.0780   42.7470 C.3   126  ARG126      0.2205
     99  NE        57.1590   15.2400   44.0830 N.pl3 126  ARG126     -0.0865
    100  CZ        55.9030   15.0460   44.4520 C.cat 126  ARG126      0.5346
    101  NH1       55.0470   14.6610   43.5810 N.pl3 126  ARG126      0.1354
    102  NH2       55.5230   15.2220   45.7040 N.pl3 126  ARG126      0.1354
    103  N         55.9870   11.2600   56.0030 N.3   197  ASP197     -0.1225
    104  CA        55.0270   11.8820   55.0450 C.3   197  ASP197      0.1805
    105  C         53.6610   11.2650   54.9510 C.2   197  ASP197      0.2597
    106  O         52.6980   11.9920   54.5860 O.2   197  ASP197     -0.2718
    107  CB        55.5960   11.8270   53.6360 C.3   197  ASP197      0.1424
    108  CG        56.6080   12.9490   53.3700 C.2   197  ASP197      0.3668
    109  OD1       56.8240   13.8640   54.2440 O.co2 197  ASP197     -0.2456
    110  OD2       57.1920   12.8710   52.2540 O.co2 197  ASP197     -0.2456
    111  N         53.5770    9.9480   55.1700 N.am  198  GLU198     -0.1979
    112  CA        52.2990    9.2080   55.1200 C.3   198  GLU198      0.1602
    113  C         52.4210    8.1610   56.2030 C.2   198  GLU198      0.2287
    114  O         52.9670    7.0740   55.9750 O.2   198  GLU198     -0.2864
    115  CB        52.1100    8.3700   53.8450 C.3   198  GLU198      0.0415
    116  CG        51.6540    9.0680   52.6460 C.3   198  GLU198      0.1163
    117  CD        51.2870    8.1060   51.4810 C.2   198  GLU198      0.3649
    118  OE1       51.1710    8.6260   50.3190 O.co2 198  GLU198     -0.2457
    119  OE2       51.1110    6.8500   51.7200 O.co2 198  GLU198     -0.2457
    120  N         44.1350    8.7640   48.1290 N.3   364  ARG364     -0.1245
    121  CA        44.4270   10.0430   47.4350 C.3   364  ARG364      0.1563
    122  C         43.8890   10.2030   45.9960 C.2   364  ARG364      0.2260
    123  O         43.2230   11.2080   45.7160 O.2   364  ARG364     -0.2867
    124  CB        45.9310   10.3970   47.5300 C.3   364  ARG364      0.0307
    125  CG        46.8890   10.0270   46.3230 C.3   364  ARG364      0.0489
    126  CD        48.3720    9.7000   46.7600 C.3   364  ARG364      0.2205
    127  NE        48.8690   10.5150   47.8920 N.pl3 364  ARG364     -0.0865
    128  CZ        48.8250   10.1830   49.1970 C.cat 364  ARG364      0.5346
    129  NH1       49.3090   11.0340   50.1070 N.pl3 364  ARG364      0.1354
    130  NH2       48.3090    9.0160   49.6180 N.pl3 364  ARG364      0.1354
@<TRIPOS>BOND
     1    97    98    1
     2    97    96    1
     3    98    99    1
     4    96    93    1
     5   101   100    1
     6    93    92    1
     7    93    94    1
     8    99   100    2
     9     2     1    1
    10     2     3    1
    11    95    94    2
    12   100   102    1
    13     4     3    2
    14     3     5   am
    15   123   122    2
    16    10    11    1
    17    10     9    1
    18   122   121    1
    19    11    12    1
    20     5     6    1
    21   125   126    1
    22   125   124    1
    23   126   127    1
    24     9     6    1
    25     6     7    1
    26   121   124    1
    27   121   120    1
    28   127   128    2
    29     7    13   am
    30     7     8    2
    31    50    48    1
    32    52    51    1
    33    52    53    1
    34    13    14    1
    35    83    81    1
    36   128   130    1
    37   128   129    1
    38    54    53    2
    39    51    46   am
    40    82    81    1
    41    81    78    1
    42    53    55   am
    43    34    32   ar
    44    34    33   ar
    45    48    49    1
    46    48    45    1
    47    91    89    1
    48    46    47    2
    49    46    45    1
    50   118   117   ar
    51    90    89    1
    52    14    17    1
    53    14    15    1
    54    17    18    1
    55    32    30   ar
    56    33    31   ar
    57    65    64    1
    58    65    66    1
    59    88    89    1
    60    88    85    1
    61    55    56    1
    62    45    44    1
    63    64    57   am
    64    78    77    1
    65    78    79    1
    66    84    85    1
    67    84    79   am
    68    16    15    2
    69    85    86    1
    70    77    70   am
    71    79    80    2
    72   117   119   ar
    73   117   116    1
    74    18    19    1
    75    57    56    1
    76    57    58    2
    77    56    59    1
    78    66    68   am
    79    66    67    2
    80    30    29   ar
    81    19    20    1
    82    31    29   ar
    83    68    69    1
    84    43    41   am
    85   110   108   ar
    86    63    61   ar
    87    20    21    2
    88    29    28    1
    89   116   115    1
    90    42    41    2
    91    70    69    1
    92    70    71    2
    93    76    75    1
    94    86    87    2
    95    41    40    1
    96    69    72    1
    97    61    60    1
    98    61    62   ar
    99    59    60    1
   100    72    73    1
   101   108   107    1
   102   108   109   ar
   103    75    74    1
   104   107   104    1
   105    21    23    1
   106    21    22    1
   107    24    25    1
   108   115   112    1
   109    28    25    1
   110    73    74    1
   111    40    39    1
   112    25    26    1
   113   106   105    2
   114   105   104    1
   115   105   111   am
   116   104   103    1
   117   112   111    1
   118   112   113    1
   119    39    36    1
   120   114   113    2
   121    26    27    2
   122    36    35    1
   123    36    37    1
   124    37    38    2
