@<TRIPOS>MOLECULE
tmp/2fshB00.pdb
 131 124 0 0 0
SMALL
GASTEIGER

@<TRIPOS>ATOM
      1  N         40.1410   18.7630   11.0530 N.3    68  GLY68      -0.1210
      2  CA        41.3860   19.5430   10.7860 C.3    68  GLY68       0.1956
      3  C         42.5640   18.6030   10.6090 C.2    68  GLY68       0.2612
      4  O         43.6680   18.9590   10.8970 O.2    68  GLY68      -0.2717
      5  N         42.3390   17.4180   10.0890 N.am   69  MET69      -0.1965
      6  CA        43.3940   16.4410    9.8290 C.3    69  MET69       0.1736
      7  C         43.1420   15.8900    8.4770 C.2    69  MET69       0.2616
      8  O         42.0030   15.3730    8.2050 O.2    69  MET69      -0.2715
      9  CB        43.2820   15.2550   10.7720 C.3    69  MET69       0.0427
     10  CG        43.6740   15.6660   12.2250 C.3    69  MET69       0.0599
     11  SD        43.4930   14.2130   13.2400 S.3    69  MET69      -0.1393
     12  CE        41.7910   14.0230   13.4980 C.3    69  MET69       0.0692
     13  N         44.2060   15.8770    7.6870 N.am   70  ARG70      -0.1977
     14  CA        44.2700   15.3920    6.3030 C.3    70  ARG70       0.1597
     15  C         45.0990   14.1460    6.2730 C.2    70  ARG70       0.2287
     16  O         46.2460   14.2050    6.5850 O.2    70  ARG70      -0.2864
     17  CB        44.9730   16.4740    5.4600 C.3    70  ARG70       0.0334
     18  CG        45.0490   16.0760    3.9410 C.3    70  ARG70       0.0492
     19  CD        45.8950   17.1450    3.2510 C.3    70  ARG70       0.2205
     20  NE        46.0660   16.8200    1.8680 N.pl3  70  ARG70      -0.0865
     21  CZ        47.0590   16.0910    1.3720 C.cat  70  ARG70       0.5346
     22  NH1       47.9720   15.5560    2.1680 N.pl3  70  ARG70       0.1354
     23  NH2       47.1140   15.9050    0.0620 N.pl3  70  ARG70       0.1354
     24  N         47.5170   11.3040    5.5780 N.3    72  PHE72      -0.1241
     25  CA        48.7500   11.2710    4.8890 C.3    72  PHE72       0.1605
     26  C         48.6800   10.2040    3.8380 C.2    72  PHE72       0.2264
     27  O         47.8580    9.2850    3.9400 O.2    72  PHE72      -0.2867
     28  CB        49.8830   10.9040    5.8010 C.3    72  PHE72       0.0534
     29  CG        50.0500   11.7900    7.0390 C.ar   72  PHE72      -0.0203
     30  CD1       50.1240   13.1610    6.9340 C.ar   72  PHE72      -0.0042
     31  CD2       50.1280   11.2170    8.2990 C.ar   72  PHE72      -0.0042
     32  CE1       50.3010   13.9760    8.0450 C.ar   72  PHE72      -0.0003
     33  CE2       50.2800   12.0260    9.4380 C.ar   72  PHE72      -0.0003
     34  CZ        50.3880   13.4510    9.2640 C.ar   72  PHE72      -0.0000
     35  N         48.6520    6.7370    5.1960 N.3    75  GLN75      -0.1301
     36  CA        47.3540    6.4140    5.7410 C.3    75  GLN75       0.1252
     37  C         46.3660    6.0110    4.7100 C.3    75  GLN75       0.2009
     38  O         45.5210    5.0810    4.9830 O.3    75  GLN75      -0.2188
     39  CB        46.8150    7.5710    6.5750 C.3    75  GLN75       0.0314
     40  CG        47.6920    7.7950    7.8670 C.3    75  GLN75       0.0901
     41  CD        47.1810    8.9810    8.6990 C.2    75  GLN75       0.2608
     42  OE1       46.8810   10.0420    8.1340 O.2    75  GLN75      -0.2717
     43  NE2       47.0540    8.7960    9.9810 N.am   75  GLN75      -0.0878
     44  N         52.5120    5.4830   16.3340 N.3    93  GLY93      -0.1210
     45  CA        52.6730    6.9080   16.0060 C.3    93  GLY93       0.1956
     46  C         52.1110    7.2270   14.6430 C.2    93  GLY93       0.2612
     47  O         52.1290    8.3820   14.2200 O.2    93  GLY93      -0.2717
     48  N         51.5920    6.2300   13.9230 N.am   94  GLU94      -0.1965
     49  CA        51.2700    6.4750   12.5130 C.3    94  GLU94       0.1733
     50  C         49.8940    6.8670   12.2490 C.2    94  GLU94       0.2617
     51  O         49.6250    7.1140   11.0640 O.2    94  GLU94      -0.2715
     52  CB        51.6440    5.3070   11.5790 C.3    94  GLU94       0.0429
     53  CG        53.2180    5.1230   11.4710 C.3    94  GLU94       0.1163
     54  CD        53.8750    6.3420   10.7440 C.2    94  GLU94       0.3649
     55  OE1       53.3970    6.7440    9.6120 O.co2  94  GLU94      -0.2457
     56  OE2       54.8210    6.9300   11.3800 O.co2  94  GLU94      -0.2457
     57  N         49.0440    6.9330   13.2740 N.am   95  GLY95      -0.1940
     58  CA        47.6420    7.3530   13.0780 C.3    95  GLY95       0.2014
     59  C         46.7430    6.2360   12.6050 C.2    95  GLY95       0.2639
     60  O         45.9290    6.4210   11.7400 O.2    95  GLY95      -0.2714
     61  N         46.8850    5.0430   13.1650 N.am   96  LYS96      -0.1963
     62  CA        45.9560    3.9550   12.9100 C.3    96  LYS96       0.1728
     63  C         44.5410    4.3120   13.0580 C.2    96  LYS96       0.2617
     64  O         43.7400    3.9020   12.2590 O.2    96  LYS96      -0.2715
     65  CB        46.3350    2.6800   13.7630 C.3    96  LYS96       0.0311
     66  CG        47.5440    2.0270   13.0890 C.3    96  LYS96       0.0038
     67  CD        48.1530    0.6270   13.7670 C.3    96  LYS96       0.0206
     68  CE        48.8690    0.7020   15.0230 C.3    96  LYS96       0.1093
     69  NZ        49.9780    1.7660   15.1290 N.3    96  LYS96      -0.1314
     70  N         44.1660    5.0340   14.0900 N.am   97  THR97      -0.1937
     71  CA        42.7740    5.2950   14.3030 C.3    97  THR97       0.2028
     72  C         42.1650    6.1700   13.1360 C.2    97  THR97       0.2638
     73  O         41.0340    5.9620   12.6400 O.2    97  THR97      -0.2714
     74  CB        42.5870    5.9520   15.7360 C.3    97  THR97       0.1808
     75  OG1       42.9850    5.0340   16.7650 O.3    97  THR97      -0.2208
     76  CG2       41.2230    6.3790   15.9850 C.3    97  THR97       0.0379
     77  N         42.8830    7.1800   12.6600 N.am   98  LEU98      -0.2030
     78  CA        42.4030    7.9530   11.5130 C.3    98  LEU98       0.1282
     79  C         42.3880    7.1440   10.2030 C.3    98  LEU98       0.2036
     80  O         41.4280    7.1740    9.3310 O.3    98  LEU98      -0.2185
     81  CB        43.2790    9.2090   11.3470 C.3    98  LEU98       0.0244
     82  CG        42.7860   10.2150   10.2900 C.3    98  LEU98       0.0018
     83  CD1       41.3670   10.6280   10.5750 C.3    98  LEU98       0.0001
     84  CD2       43.7010   11.4060   10.0820 C.3    98  LEU98       0.0001
     85  N         34.5580    5.9930   22.5960 N.3   126  ARG126     -0.1245
     86  CA        35.3090    7.1710   22.2340 C.3   126  ARG126      0.1563
     87  C         35.4430    7.3330   20.7510 C.2   126  ARG126      0.2260
     88  O         35.2740    8.3840   20.2010 O.2   126  ARG126     -0.2867
     89  CB        36.7070    7.0290   22.8080 C.3   126  ARG126      0.0307
     90  CG        37.5750    8.2720   22.6180 C.3   126  ARG126      0.0489
     91  CD        39.0020    7.8990   22.7770 C.3   126  ARG126      0.2205
     92  NE        39.4820    7.0630   21.7110 N.pl3 126  ARG126     -0.0865
     93  CZ        40.7510    6.7010   21.5300 C.cat 126  ARG126      0.5346
     94  NH1       41.6860    7.1150   22.3610 N.pl3 126  ARG126      0.1354
     95  NH2       41.0990    5.9660   20.4930 N.pl3 126  ARG126      0.1354
     96  N         40.8870   -3.5330   15.3450 N.3   197  ASP197     -0.1225
     97  CA        41.8420   -2.4520   15.5930 C.3   197  ASP197      0.1805
     98  C         43.1920   -2.7940   16.1250 C.2   197  ASP197      0.2597
     99  O         44.1410   -1.9660   15.9710 O.2   197  ASP197     -0.2718
    100  CB        41.2720   -1.4190   16.5540 C.3   197  ASP197      0.1424
    101  CG        40.3380   -0.4560   15.8800 C.2   197  ASP197      0.3668
    102  OD1       40.1010   -0.5210   14.6390 O.co2 197  ASP197     -0.2456
    103  OD2       39.7610    0.3580   16.6610 O.co2 197  ASP197     -0.2456
    104  N         43.3210   -3.8910   16.8260 N.am  198  GLU198     -0.1979
    105  CA        44.6540   -4.3660   17.2270 C.3   198  GLU198      0.1602
    106  C         44.6640   -5.8860   17.2470 C.2   198  GLU198      0.2287
    107  O         44.1850   -6.5480   18.1510 O.2   198  GLU198     -0.2864
    108  CB        45.1930   -3.7700   18.5340 C.3   198  GLU198      0.0415
    109  CG        44.5770   -4.0650   19.8800 C.3   198  GLU198      0.1163
    110  CD        45.5120   -3.6040   21.1380 C.2   198  GLU198      0.3649
    111  OE1       45.8810   -2.3800   21.1890 O.co2 198  GLU198     -0.2457
    112  OE2       45.8450   -4.4470   22.0850 O.co2 198  GLU198     -0.2457
    113  N         44.5170   -4.1150   12.0130 N.3   279  MET279     -0.1245
    114  CA        45.7700   -3.2900   12.1760 C.3   279  MET279      0.1570
    115  C         46.5810   -3.7380   13.3350 C.2   279  MET279      0.2261
    116  O         46.0360   -4.2170   14.3120 O.2   279  MET279     -0.2867
    117  CB        45.3830   -1.8330   12.4340 C.3   279  MET279      0.0387
    118  CG        44.6090   -1.2820   11.3150 C.3   279  MET279      0.0595
    119  SD        44.1610    0.4750   11.4650 S.3   279  MET279     -0.1393
    120  CE        43.1660    0.2730   12.8400 C.3   279  MET279      0.0692
    121  N         52.4710   -0.5280   22.3580 N.3   398  ARG398     -0.1245
    122  CA        52.3980    0.9420   22.1740 C.3   398  ARG398      0.1563
    123  C         52.9600    1.7620   23.3860 C.2   398  ARG398      0.2260
    124  O         54.1220    2.2200   23.3410 O.2   398  ARG398     -0.2867
    125  CB        50.9760    1.4340   21.7720 C.3   398  ARG398      0.0307
    126  CG        50.9090    3.0250   21.4290 C.3   398  ARG398      0.0489
    127  CD        50.2240    3.3970   20.0300 C.3   398  ARG398      0.2205
    128  NE        50.7570    2.5140   18.9800 N.pl3 398  ARG398     -0.0865
    129  CZ        50.2280    1.3540   18.5710 C.cat 398  ARG398      0.5346
    130  NH1       49.0620    0.9570   19.0730 N.pl3 398  ARG398      0.1354
    131  NH2       50.8690    0.5950   17.6500 N.pl3 398  ARG398      0.1354
@<TRIPOS>BOND
     1    23    21    1
     2    21    20    2
     3    21    22    1
     4    20    19    1
     5    19    18    1
     6    26    27    2
     7    26    25    1
     8    18    17    1
     9    37    38    1
    10    37    36    1
    11    25    24    1
    12    25    28    1
    13    35    36    1
    14    17    14    1
    15    36    39    1
    16    28    29    1
    17    15    14    1
    18    15    16    2
    19    14    13    1
    20    39    40    1
    21    30    29   ar
    22    30    32   ar
    23    29    31   ar
    24    13     7   am
    25    40    41    1
    26    32    34   ar
    27    42    41    2
    28     8     7    2
    29    31    33   ar
    30     7     6    1
    31    41    43   am
    32    34    33   ar
    33    80    79    1
    34    55    54   ar
    35     6     5    1
    36     6     9    1
    37    84    82    1
    38     5     3   am
    39    79    78    1
    40    82    83    1
    41    82    81    1
    42     3     2    1
    43     3     4    2
    44    54    56   ar
    45    54    53    1
    46     9    10    1
    47     2     1    1
    48    51    50    2
    49   118   119    1
    50   118   117    1
    51    81    78    1
    52   119   120    1
    53    53    52    1
    54    78    77    1
    55    52    49    1
    56    60    59    2
    57   113   114    1
    58   114   117    1
    59   114   115    1
    60    10    11    1
    61    50    49    1
    62    50    57   am
    63    64    63    2
    64    49    48    1
    65    59    58    1
    66    59    61   am
    67    73    72    2
    68    77    72   am
    69    62    63    1
    70    62    61    1
    71    62    65    1
    72    63    70   am
    73    58    57    1
    74    66    65    1
    75    66    67    1
    76    72    71    1
    77    11    12    1
    78   115   116    2
    79    67    68    1
    80    48    46   am
    81    70    71    1
    82    47    46    2
    83    71    74    1
    84   102   101   ar
    85    46    45    1
    86    68    69    1
    87    96    97    1
    88    97    98    1
    89    97   100    1
    90    74    76    1
    91    74    75    1
    92   101   100    1
    93   101   103   ar
    94    99    98    2
    95    45    44    1
    96    98   104   am
    97   104   105    1
    98   105   106    1
    99   105   108    1
   100   106   107    2
   101   131   129    1
   102   108   109    1
   103   129   128    2
   104   129   130    1
   105   128   127    1
   106   109   110    1
   107   127   126    1
   108    88    87    2
   109    95    93    1
   110    87    86    1
   111   110   111   ar
   112   110   112   ar
   113   126   125    1
   114    93    92    2
   115    93    94    1
   116    92    91    1
   117   125   122    1
   118   122   121    1
   119   122   123    1
   120    86    85    1
   121    86    89    1
   122    90    91    1
   123    90    89    1
   124   124   123    2
