@<TRIPOS>MOLECULE
tmp/2fsiB00.pdb
 118 112 0 0 0
SMALL
GASTEIGER

@<TRIPOS>ATOM
      1  N         42.3260   17.5500   10.2380 N.3    71  MET71      -0.1230
      2  CA        43.4550   16.7470    9.9360 C.3    71  MET71       0.1702
      3  C         43.2870   16.1380    8.5390 C.2    71  MET71       0.2592
      4  O         42.1800   15.6000    8.1790 O.2    71  MET71      -0.2718
      5  CB        43.4300   15.5500   10.9280 C.3    71  MET71       0.0401
      6  CG        43.8940   15.8840   12.3670 C.3    71  MET71       0.0596
      7  SD        43.3760   14.3620   13.3140 S.3    71  MET71      -0.1393
      8  CE        44.8490   14.0500   14.1270 C.3    71  MET71       0.0692
      9  N         44.3710   16.0160    7.8190 N.am   72  ARG72      -0.1980
     10  CA        44.3570   15.4950    6.4920 C.3    72  ARG72       0.1597
     11  C         45.1770   14.2460    6.4400 C.2    72  ARG72       0.2287
     12  O         46.3570   14.2830    6.6370 O.2    72  ARG72      -0.2864
     13  CB        44.9940   16.4910    5.5740 C.3    72  ARG72       0.0334
     14  CG        45.2750   15.9610    4.1530 C.3    72  ARG72       0.0492
     15  CD        46.0650   17.2600    3.5540 C.3    72  ARG72       0.2205
     16  NE        46.2850   17.0060    2.1340 N.pl3  72  ARG72      -0.0865
     17  CZ        47.2720   16.2540    1.5910 C.cat  72  ARG72       0.5346
     18  NH1       48.1780   15.6270    2.3310 N.pl3  72  ARG72       0.1354
     19  NH2       47.3180   16.0610    0.2750 N.pl3  72  ARG72       0.1354
     20  N         47.6420   11.4100    5.8290 N.3    74  PHE74      -0.1241
     21  CA        48.9210   11.3120    5.0840 C.3    74  PHE74       0.1605
     22  C         48.9090   10.2510    3.9630 C.2    74  PHE74       0.2264
     23  O         48.1860    9.2950    4.0310 O.2    74  PHE74      -0.2867
     24  CB        50.0730   10.9470    6.0370 C.3    74  PHE74       0.0534
     25  CG        50.2230   11.8670    7.2450 C.ar   74  PHE74      -0.0203
     26  CD1       50.2510   13.1790    7.1160 C.ar   74  PHE74      -0.0042
     27  CD2       50.3030   11.3670    8.5060 C.ar   74  PHE74      -0.0042
     28  CE1       50.4110   14.0140    8.1840 C.ar   74  PHE74      -0.0003
     29  CE2       50.4050   12.2460    9.5990 C.ar   74  PHE74      -0.0003
     30  CZ        50.4520   13.5500    9.3960 C.ar   74  PHE74      -0.0000
     31  N         48.8650    6.7610    5.3630 N.3    77  GLN77      -0.1245
     32  CA        47.5320    6.4290    5.8350 C.3    77  GLN77       0.1566
     33  C         46.5880    6.0780    4.7720 C.2    77  GLN77       0.2260
     34  O         45.7810    5.2350    4.9650 O.2    77  GLN77      -0.2867
     35  CB        46.9680    7.5480    6.6500 C.3    77  GLN77       0.0367
     36  CG        47.8410    7.8440    7.9810 C.3    77  GLN77       0.0905
     37  CD        47.2830    9.0560    8.7810 C.2    77  GLN77       0.2608
     38  OE1       46.9910   10.0640    8.1600 O.2    77  GLN77      -0.2717
     39  NE2       47.0890    8.9390   10.1040 N.am   77  GLN77      -0.0878
     40  N         53.7110    2.3500   15.7380 N.3    94  THR94      -0.1203
     41  CA        53.2630    3.2210   16.7900 C.3    94  THR94       0.1994
     42  C         53.4170    4.7030   16.4000 C.2    94  THR94       0.2618
     43  O         54.4820    5.1340   16.0010 O.2    94  THR94      -0.2717
     44  CB        54.0070    2.8980   18.1240 C.3    94  THR94       0.1784
     45  OG1       53.4140    1.7370   18.6550 O.3    94  THR94      -0.2211
     46  CG2       53.7240    3.9030   19.1700 C.3    94  THR94       0.0376
     47  N         52.3390    5.4340   16.5150 N.am   95  GLY95      -0.1942
     48  CA        52.4400    6.9030   16.4010 C.3    95  GLY95       0.2014
     49  C         51.9780    7.2980   14.9970 C.2    95  GLY95       0.2639
     50  O         52.0290    8.4510   14.6490 O.2    95  GLY95      -0.2714
     51  N         51.6520    6.3060   14.1520 N.am   96  GLU96      -0.1963
     52  CA        51.4750    6.6040   12.7430 C.3    96  GLU96       0.1733
     53  C         50.0670    7.0590   12.4250 C.2    96  GLU96       0.2617
     54  O         49.8010    7.3900   11.3000 O.2    96  GLU96      -0.2715
     55  CB        51.9330    5.4550   11.8290 C.3    96  GLU96       0.0429
     56  CG        53.5040    5.3450   11.7820 C.3    96  GLU96       0.1163
     57  CD        54.1700    6.4920   11.0270 C.2    96  GLU96       0.3649
     58  OE1       53.7480    6.7310    9.8020 O.co2  96  GLU96      -0.2457
     59  OE2       55.1120    7.2180   11.5780 O.co2  96  GLU96      -0.2457
     60  N         49.1570    6.9510   13.3600 N.am   97  GLY97      -0.1940
     61  CA        47.8020    7.3610   13.1030 C.3    97  GLY97       0.2014
     62  C         46.8730    6.2590   12.6610 C.2    97  GLY97       0.2639
     63  O         46.0790    6.4480   11.7430 O.2    97  GLY97      -0.2714
     64  N         46.9190    5.0980   13.3060 N.am   98  LYS98      -0.1963
     65  CA        45.9610    4.0200   13.0310 C.3    98  LYS98       0.1728
     66  C         44.5090    4.4030   13.1650 C.2    98  LYS98       0.2617
     67  O         43.6780    3.8650   12.4330 O.2    98  LYS98      -0.2715
     68  CB        46.2570    2.7830   13.9380 C.3    98  LYS98       0.0311
     69  CG        47.5050    2.0780   13.5250 C.3    98  LYS98       0.0038
     70  CD        47.9180    0.7230   14.3850 C.3    98  LYS98       0.0206
     71  CE        49.1260    0.9270   15.3260 C.3    98  LYS98       0.1093
     72  NZ        49.9300    2.1580   15.1440 N.3    98  LYS98      -0.1314
     73  N         44.1840    5.2500   14.1480 N.am   99  THR99      -0.1937
     74  CA        42.8160    5.5670   14.4280 C.3    99  THR99       0.2028
     75  C         42.1620    6.3580   13.2320 C.2    99  THR99       0.2642
     76  O         41.1420    5.9200   12.6690 O.2    99  THR99      -0.2714
     77  CB        42.6340    6.3590   15.7950 C.3    99  THR99       0.1808
     78  OG1       43.1000    5.5000   16.8590 O.3    99  THR99      -0.2208
     79  CG2       41.0570    6.5750   15.9930 C.3    99  THR99       0.0379
     80  N         42.8570    7.3540   12.7130 N.am  100  LEU100     -0.1977
     81  CA        42.4460    8.0650   11.5030 C.3   100  LEU100      0.1596
     82  C         42.4850    7.3080   10.2520 C.2   100  LEU100      0.2287
     83  O         41.5170    7.3520    9.4190 O.2   100  LEU100     -0.2864
     84  CB        43.3050    9.3770   11.3180 C.3   100  LEU100      0.0297
     85  CG        42.7410   10.2610   10.2450 C.3   100  LEU100      0.0022
     86  CD1       41.3570   10.6730   10.7640 C.3   100  LEU100      0.0001
     87  CD2       43.5810   11.5810   10.0390 C.3   100  LEU100      0.0001
     88  N         34.4640    6.1170   22.6350 N.3   128  ARG128     -0.1245
     89  CA        35.1890    7.2960   22.3450 C.3   128  ARG128      0.1563
     90  C         35.3200    7.4100   20.8820 C.2   128  ARG128      0.2260
     91  O         35.2100    8.4680   20.3150 O.2   128  ARG128     -0.2867
     92  CB        36.6740    7.1320   22.8850 C.3   128  ARG128      0.0307
     93  CG        37.5240    8.3790   22.7900 C.3   128  ARG128      0.0489
     94  CD        39.0650    8.1100   22.8150 C.3   128  ARG128      0.2205
     95  NE        39.5420    7.2220   21.7860 N.pl3 128  ARG128     -0.0865
     96  CZ        40.8200    6.9090   21.5760 C.cat 128  ARG128      0.5346
     97  NH1       41.6960    7.3140   22.4250 N.pl3 128  ARG128      0.1354
     98  NH2       41.2100    6.1600   20.5500 N.pl3 128  ARG128      0.1354
     99  N         53.2220   -0.6070   22.3970 N.3   421  ARG421     -0.1245
    100  CA        52.6640    0.6900   22.0150 C.3   421  ARG421      0.1563
    101  C         53.0420    1.7760   23.0550 C.2   421  ARG421      0.2260
    102  O         53.9640    2.5630   22.7990 O.2   421  ARG421     -0.2867
    103  CB        51.1360    0.6300   21.7890 C.3   421  ARG421      0.0307
    104  CG        50.4370    2.0780   21.5880 C.3   421  ARG421      0.0489
    105  CD        50.2040    2.6940   20.0910 C.3   421  ARG421      0.2205
    106  NE        50.9120    1.9920   19.0270 N.pl3 421  ARG421     -0.0865
    107  CZ        50.4440    0.9540   18.3480 C.cat 421  ARG421      0.5346
    108  NH1       49.2140    0.4890   18.5800 N.pl3 421  ARG421      0.1354
    109  NH2       51.2010    0.3630   17.4520 N.pl3 421  ARG421      0.1354
    110  N         58.2130    8.7100   14.6170 N.3   490  GLN490     -0.1245
    111  CA        57.8730    9.8470   13.7320 C.3   490  GLN490      0.1566
    112  C         59.1620   10.5730   13.2250 C.2   490  GLN490      0.2260
    113  O         59.2630   11.7370   13.2730 O.2   490  GLN490     -0.2867
    114  CB        56.8920   10.8160   14.4310 C.3   490  GLN490      0.0367
    115  CG        55.3390   10.1870   14.4550 C.3   490  GLN490      0.0905
    116  CD        54.2510   11.0570   15.2690 C.2   490  GLN490      0.2608
    117  OE1       54.4370   12.3030   15.5200 O.2   490  GLN490     -0.2717
    118  NE2       53.0910   10.3780   15.6880 N.am  490  GLN490     -0.0878
@<TRIPOS>BOND
     1    19    17    1
     2    17    16    2
     3    17    18    1
     4    16    15    1
     5    15    14    1
     6    22    23    2
     7    22    21    1
     8    14    13    1
     9    33    34    2
    10    33    32    1
    11    21    20    1
    12    21    24    1
    13    31    32    1
    14    13    10    1
    15    32    35    1
    16    24    25    1
    17    11    10    1
    18    11    12    2
    19    10     9    1
    20    35    36    1
    21    26    25   ar
    22    26    28   ar
    23    25    27   ar
    24     9     3   am
    25    36    37    1
    26    38    37    2
    27     4     3    2
    28    28    30   ar
    29    27    29   ar
    30     3     2    1
    31    37    39   am
    32    30    29   ar
    33    83    82    2
    34    58    57   ar
    35     2     1    1
    36     2     5    1
    37    87    85    1
    38    85    86    1
    39    85    84    1
    40    82    81    1
    41     5     6    1
    42    57    59   ar
    43    57    56    1
    44    54    53    2
    45    84    81    1
    46    81    80    1
    47    63    62    2
    48    56    55    1
    49    55    52    1
    50     6     7    1
    51    53    52    1
    52    53    60   am
    53    67    66    2
    54    62    61    1
    55    62    64   am
    56    76    75    2
    57    80    75   am
    58    52    51    1
    59    65    66    1
    60    65    64    1
    61    65    68    1
    62    61    60    1
    63    66    73   am
    64   112   113    2
    65   112   111    1
    66    75    74    1
    67     7     8    1
    68    69    68    1
    69    69    70    1
    70   111   114    1
    71   111   110    1
    72    73    74    1
    73    51    49   am
    74    70    71    1
    75    74    77    1
    76   114   115    1
    77   115   116    1
    78    50    49    2
    79    49    48    1
    80    72    71    1
    81   116   117    2
    82   116   118   am
    83    40    41    1
    84    77    79    1
    85    77    78    1
    86    43    42    2
    87    42    47   am
    88    42    41    1
    89    48    47    1
    90    41    44    1
    91   109   107    1
    92    44    45    1
    93    44    46    1
    94   107   108    1
    95   107   106    2
    96   106   105    1
    97   105   104    1
    98    91    90    2
    99    98    96    1
   100    90    89    1
   101    96    95    2
   102    96    97    1
   103   104   103    1
   104    95    94    1
   105   103   100    1
   106   100    99    1
   107   100   101    1
   108    89    88    1
   109    89    92    1
   110    93    94    1
   111    93    92    1
   112   102   101    2
