@<TRIPOS>MOLECULE
tmp/2fsiA00.pdb
 122 116 0 0 0
SMALL
GASTEIGER

@<TRIPOS>ATOM
      1  N         56.8500   31.1800   44.6990 N.3    68  GLY68      -0.1210
      2  CA        55.6430   31.8900   44.3180 C.3    68  GLY68       0.1956
      3  C         54.4460   31.3170   45.0680 C.2    68  GLY68       0.2612
      4  O         53.3620   31.3480   44.5560 O.2    68  GLY68      -0.2717
      5  N         54.6770   30.7840   46.2810 N.am   69  MET69      -0.1965
      6  CA        53.6520   30.2090   47.1430 C.3    69  MET69       0.1736
      7  C         53.8360   30.6660   48.5440 C.2    69  MET69       0.2616
      8  O         54.9470   30.5410   49.1390 O.2    69  MET69      -0.2715
      9  CB        53.7570   28.7000   47.2070 C.3    69  MET69       0.0427
     10  CG        53.1730   28.0450   46.0060 C.3    69  MET69       0.0599
     11  SD        53.5230   26.2960   45.9880 S.3    69  MET69      -0.1393
     12  CE        53.0830   26.1630   44.2660 C.3    69  MET69       0.0692
     13  N         52.7220   31.0830   49.1150 N.am   70  ARG70      -0.1977
     14  CA        52.6450   31.6060   50.4730 C.3    70  ARG70       0.1597
     15  C         51.8250   30.6420   51.3130 C.2    70  ARG70       0.2287
     16  O         50.6330   30.5210   51.1250 O.2    70  ARG70      -0.2864
     17  CB        51.9560   32.9710   50.4530 C.3    70  ARG70       0.0334
     18  CG        52.2420   33.7740   51.6720 C.3    70  ARG70       0.0492
     19  CD        51.4110   35.0350   51.8100 C.3    70  ARG70       0.2205
     20  NE        50.2650   34.6050   52.5410 N.pl3  70  ARG70      -0.0865
     21  CZ        49.7770   35.1400   53.6440 C.cat  70  ARG70       0.5346
     22  NH1       50.2870   36.2060   54.1750 N.pl3  70  ARG70       0.1354
     23  NH2       48.7110   34.5760   54.1960 N.pl3  70  ARG70       0.1354
     24  N         49.4360   29.0500   53.7490 N.3    72  PHE72      -0.1241
     25  CA        48.1840   29.4420   54.3980 C.3    72  PHE72       0.1605
     26  C         48.3030   29.2830   55.8820 C.2    72  PHE72       0.2264
     27  O         49.0950   28.5030   56.3970 O.2    72  PHE72      -0.2867
     28  CB        47.0130   28.5430   53.9640 C.3    72  PHE72       0.0534
     29  CG        46.9120   28.3160   52.4660 C.ar   72  PHE72      -0.0203
     30  CD1       46.8890   29.3950   51.5900 C.ar   72  PHE72      -0.0042
     31  CD2       46.7360   27.0220   51.9520 C.ar   72  PHE72      -0.0042
     32  CE1       46.7760   29.1830   50.2230 C.ar   72  PHE72      -0.0003
     33  CE2       46.6070   26.7820   50.5950 C.ar   72  PHE72      -0.0003
     34  CZ        46.6160   27.8600   49.7100 C.ar   72  PHE72      -0.0000
     35  N         48.4150   25.8210   57.2130 N.3    75  GLN75      -0.1245
     36  CA        49.6810   25.1740   56.9670 C.3    75  GLN75       0.1566
     37  C         50.6780   25.5770   58.0220 C.2    75  GLN75       0.2260
     38  O         51.5810   24.7950   58.4040 O.2    75  GLN75      -0.2867
     39  CB        50.1840   25.4460   55.5330 C.3    75  GLN75       0.0367
     40  CG        49.3410   24.7930   54.3920 C.3    75  GLN75       0.0905
     41  CD        49.7360   25.2480   52.9860 C.2    75  GLN75       0.2608
     42  OE1       49.9830   26.4260   52.7180 O.2    75  GLN75      -0.2717
     43  NE2       49.8320   24.3090   52.0900 N.am   75  GLN75      -0.0878
     44  N         43.4830   15.6120   52.0400 N.3    92  THR92      -0.1203
     45  CA        44.0980   15.5010   50.7320 C.3    92  THR92       0.1994
     46  C         43.9160   16.8140   49.9630 C.2    92  THR92       0.2618
     47  O         42.8450   17.4290   49.9490 O.2    92  THR92      -0.2717
     48  CB        43.4440   14.4150   49.9150 C.3    92  THR92       0.1784
     49  OG1       43.8730   13.1440   50.4210 O.3    92  THR92      -0.2211
     50  CG2       43.8780   14.5310   48.4790 C.3    92  THR92       0.0376
     51  N         45.0400   17.2240   49.3910 N.am   93  GLY93      -0.1942
     52  CA        45.1780   18.4150   48.5710 C.3    93  GLY93       0.2014
     53  C         45.4200   19.6610   49.3950 C.2    93  GLY93       0.2639
     54  O         45.2950   20.7540   48.8600 O.2    93  GLY93      -0.2714
     55  N         45.6370   19.5020   50.7010 N.am   94  GLU94      -0.1963
     56  CA        45.8100   20.6280   51.5810 C.3    94  GLU94       0.1733
     57  C         47.2130   21.1760   51.6180 C.2    94  GLU94       0.2617
     58  O         47.4600   22.2110   52.2170 O.2    94  GLU94      -0.2715
     59  CB        45.3210   20.3670   53.0290 C.3    94  GLU94       0.0429
     60  CG        43.8510   20.3430   53.2160 C.3    94  GLU94       0.1163
     61  CD        43.2120   21.6970   52.9650 C.2    94  GLU94       0.3649
     62  OE1       43.7010   22.6930   53.5530 O.co2  94  GLU94      -0.2457
     63  OE2       42.2280   21.7310   52.1620 O.co2  94  GLU94      -0.2457
     64  N         48.1550   20.5110   51.0170 N.am   95  GLY95      -0.1940
     65  CA        49.4240   21.1070   50.8000 C.3    95  GLY95       0.2014
     66  C         50.4820   20.5590   51.7190 C.2    95  GLY95       0.2639
     67  O         51.3700   21.3030   52.0910 O.2    95  GLY95      -0.2714
     68  N         50.3780   19.2910   52.0870 N.am   96  LYS96      -0.1963
     69  CA        51.3380   18.6510   52.9820 C.3    96  LYS96       0.1728
     70  C         52.7720   18.8220   52.6330 C.2    96  LYS96       0.2617
     71  O         53.6710   18.9590   53.5210 O.2    96  LYS96      -0.2715
     72  CB        51.0100   17.1440   53.1040 C.3    96  LYS96       0.0311
     73  CG        49.6670   16.9910   53.8460 C.3    96  LYS96       0.0038
     74  CD        49.3550   15.5400   54.4500 C.3    96  LYS96       0.0206
     75  CE        48.3150   14.7800   53.5850 C.3    96  LYS96       0.1093
     76  NZ        47.2400   15.7000   52.8910 N.3    96  LYS96      -0.1314
     77  N         53.0340   18.8880   51.3560 N.am   97  THR97      -0.1937
     78  CA        54.4000   18.9910   50.9140 C.3    97  THR97       0.2028
     79  C         55.0920   20.3550   51.3140 C.2    97  THR97       0.2642
     80  O         56.2460   20.4380   51.7960 O.2    97  THR97      -0.2714
     81  CB        54.4150   18.6920   49.3980 C.3    97  THR97       0.1808
     82  OG1       54.0670   17.3090   49.2340 O.3    97  THR97      -0.2208
     83  CG2       55.8360   18.9400   48.8120 C.3    97  THR97       0.0379
     84  N         54.3710   21.4250   51.0510 N.am   98  LEU98      -0.1977
     85  CA        54.8290   22.7490   51.3710 C.3    98  LEU98       0.1596
     86  C         54.8170   22.9430   52.8730 C.2    98  LEU98       0.2287
     87  O         55.7660   23.5330   53.4660 O.2    98  LEU98      -0.2864
     88  CB        53.8800   23.7770   50.7070 C.3    98  LEU98       0.0297
     89  CG        54.3290   25.2400   50.8930 C.3    98  LEU98       0.0022
     90  CD1       55.7090   25.4960   50.2440 C.3    98  LEU98       0.0001
     91  CD2       53.2770   26.2000   50.3270 C.3    98  LEU98       0.0001
     92  N         62.7400   13.9410   44.0130 N.3   126  ARG126     -0.1245
     93  CA        61.8580   15.0040   43.6170 C.3   126  ARG126      0.1563
     94  C         61.7410   16.0960   44.6640 C.2   126  ARG126      0.2260
     95  O         61.8640   17.2600   44.3230 O.2   126  ARG126     -0.2867
     96  CB        60.4350   14.4450   43.2660 C.3   126  ARG126      0.0307
     97  CG        59.5830   15.5110   42.6760 C.3   126  ARG126      0.0489
     98  CD        58.1410   15.1800   42.7600 C.3   126  ARG126      0.2205
     99  NE        57.6190   15.3650   44.0870 N.pl3 126  ARG126     -0.0865
    100  CZ        56.3570   15.1590   44.4270 C.cat 126  ARG126      0.5346
    101  NH1       55.5100   14.7080   43.5280 N.pl3 126  ARG126      0.1354
    102  NH2       55.9490   15.3750   45.6730 N.pl3 126  ARG126      0.1354
    103  N         45.5240    8.1290   47.1120 N.3   364  ARG364     -0.1245
    104  CA        45.3230    9.6030   47.2990 C.3   364  ARG364      0.1563
    105  C         44.3270   10.2120   46.3030 C.2   364  ARG364      0.2260
    106  O         43.7700   11.2720   46.5430 O.2   364  ARG364     -0.2867
    107  CB        46.6660   10.3970   47.2610 C.3   364  ARG364      0.0307
    108  CG        47.6230   10.3200   45.9160 C.3   364  ARG364      0.0489
    109  CD        49.1570   10.5370   46.2100 C.3   364  ARG364      0.2205
    110  NE        49.5870   11.9660   46.2790 N.pl3 364  ARG364     -0.0865
    111  CZ        49.7800   12.7290   47.3830 C.cat 364  ARG364      0.5346
    112  NH1       50.1730   13.9920   47.2100 N.pl3 364  ARG364      0.1354
    113  NH2       49.5910   12.2750   48.6330 N.pl3 364  ARG364      0.1354
    114  N         39.1020   21.0450   48.6980 N.3   433  GLN433     -0.1245
    115  CA        39.3870   22.4710   48.7490 C.3   433  GLN433      0.1566
    116  C         38.0940   23.3150   48.7590 C.2   433  GLN433      0.2260
    117  O         37.9740   24.3140   48.0770 O.2   433  GLN433     -0.2867
    118  CB        40.4340   22.8280   47.6500 C.3   433  GLN433      0.0367
    119  CG        41.9340   22.5430   48.1270 C.3   433  GLN433      0.0905
    120  CD        42.6180   21.3140   47.4800 C.2   433  GLN433      0.2608
    121  OE1       42.1080   20.1810   47.5600 O.2   433  GLN433     -0.2717
    122  NE2       43.8330   21.5410   46.8390 N.am  433  GLN433     -0.0878
@<TRIPOS>BOND
     1    97    98    1
     2    97    96    1
     3    98    99    1
     4    96    93    1
     5   101   100    1
     6    93    92    1
     7    93    94    1
     8    99   100    2
     9    12    11    1
    10     2     1    1
    11     2     3    1
    12    95    94    2
    13   100   102    1
    14     4     3    2
    15     3     5   am
    16   108   109    1
    17   108   107    1
    18    11    10    1
    19    10     9    1
    20   109   110    1
    21   110   111    2
    22     5     6    1
    23   105   106    2
    24   105   104    1
    25   122   120   am
    26   103   104    1
    27     6     9    1
    28     6     7    1
    29   112   111    1
    30   107   104    1
    31   111   113    1
    32   120   121    2
    33   120   119    1
    34   118   119    1
    35   118   115    1
    36   117   116    2
    37    50    48    1
    38     7    13   am
    39     7     8    2
    40    52    51    1
    41    52    53    1
    42   114   115    1
    43   115   116    1
    44    83    81    1
    45    54    53    2
    46    13    14    1
    47    82    81    1
    48    51    46   am
    49    53    55   am
    50    81    78    1
    51    34    32   ar
    52    34    33   ar
    53    48    49    1
    54    48    45    1
    55    47    46    2
    56    46    45    1
    57    32    30   ar
    58    90    89    1
    59    91    89    1
    60    17    14    1
    61    17    18    1
    62    14    15    1
    63    33    31   ar
    64    55    56    1
    65    88    89    1
    66    88    85    1
    67    45    44    1
    68    65    64    1
    69    65    66    1
    70    78    79    1
    71    78    77    1
    72    64    57   am
    73    84    79   am
    74    84    85    1
    75    16    15    2
    76    79    80    2
    77    77    70   am
    78    85    86    1
    79    56    57    1
    80    56    59    1
    81    30    29   ar
    82    57    58    2
    83    18    19    1
    84    66    68   am
    85    66    67    2
    86    19    20    1
    87    31    29   ar
    88    68    69    1
    89    43    41   am
    90    63    61   ar
    91    29    28    1
    92    20    21    2
    93    70    69    1
    94    70    71    2
    95    42    41    2
    96    86    87    2
    97    76    75    1
    98    61    60    1
    99    61    62   ar
   100    69    72    1
   101    41    40    1
   102    59    60    1
   103    72    73    1
   104    75    74    1
   105    21    22    1
   106    21    23    1
   107    24    25    1
   108    73    74    1
   109    28    25    1
   110    40    39    1
   111    25    26    1
   112    39    36    1
   113    26    27    2
   114    36    35    1
   115    36    37    1
   116    37    38    2
