@<TRIPOS>MOLECULE
tmp/2fsnB00.pdb
 165 152 0 0 0
SMALL
GASTEIGER

@<TRIPOS>ATOM
      1  N         23.1520    3.7700   54.3080 N.3     6  ASP6       -0.1239
      2  CA        23.5020    5.1680   54.4600 C.3     6  ASP6        0.1674
      3  C         22.1920    5.9980   54.6160 C.2     6  ASP6        0.2266
      4  O         21.6210    6.4750   53.6450 O.2     6  ASP6       -0.2867
      5  CB        24.2900    5.5630   53.2500 C.3     6  ASP6        0.1410
      6  CG        24.5780    7.0510   53.1570 C.2     6  ASP6        0.3668
      7  OD1       24.2030    7.8170   54.0300 O.co2   6  ASP6       -0.2456
      8  OD2       25.1790    7.5680   52.2030 O.co2   6  ASP6       -0.2456
      9  N         20.7360    8.9620   55.1820 N.3     8  GLY8       -0.1210
     10  CA        21.0260   10.3750   55.1830 C.3     8  GLY8        0.1956
     11  C         19.7810   11.1600   55.4620 C.2     8  GLY8        0.2612
     12  O         18.6990   10.6040   55.5310 O.2     8  GLY8       -0.2717
     13  N         19.9220   12.4670   55.6020 N.am    9  TYR9       -0.1962
     14  CA        18.7820   13.3140   55.9670 C.3     9  TYR9        0.1771
     15  C         17.6340   13.2140   54.9730 C.2     9  TYR9        0.2620
     16  O         16.4790   13.3250   55.3320 O.2     9  TYR9       -0.2715
     17  CB        19.2050   14.7690   55.9640 C.3     9  TYR9        0.0574
     18  CG        19.8840   15.2750   57.2140 C.ar    9  TYR9       -0.0198
     19  CD1       21.2130   15.7710   57.1730 C.ar    9  TYR9       -0.0009
     20  CD2       19.2150   15.3030   58.4110 C.ar    9  TYR9       -0.0009
     21  CE1       21.8410   16.2570   58.3010 C.ar    9  TYR9        0.0417
     22  CE2       19.8330   15.8180   59.5450 C.ar    9  TYR9        0.0417
     23  CZ        21.1550   16.2890   59.4970 C.ar    9  TYR9        0.1957
     24  OH        21.7520   16.7790   60.6400 O.3     9  TYR9       -0.2866
     25  N         17.9900   13.0760   53.7030 N.am   10  GLY10      -0.1940
     26  CA        17.0360   13.1180   52.6030 C.3    10  GLY10       0.2014
     27  C         16.6140   11.7480   52.1230 C.2    10  GLY10       0.2638
     28  O         15.4380   11.4390   52.0860 O.2    10  GLY10      -0.2714
     29  N         17.5740   10.9430   51.7030 N.am   11  ASP11      -0.1971
     30  CA        17.2780    9.5890   51.3410 C.3    11  ASP11       0.1709
     31  C         18.1470    8.6470   52.1260 C.2    11  ASP11       0.2293
     32  O         19.2820    8.9710   52.4620 O.2    11  ASP11      -0.2864
     33  CB        17.5080    9.3770   49.8710 C.3    11  ASP11       0.1436
     34  CG        17.0300   10.5230   49.0450 C.2    11  ASP11       0.3671
     35  OD1       16.2140   10.3430   48.1190 O.co2  11  ASP11      -0.2456
     36  OD2       17.4610   11.6720   49.2600 O.co2  11  ASP11      -0.2456
     37  N         19.9730    5.0740   51.7010 N.3    13  LYS13      -0.1245
     38  CA        20.6430    4.5190   50.5360 C.3    13  LYS13       0.1561
     39  C         21.1010    3.1320   50.8800 C.2    13  LYS13       0.2260
     40  O         21.8190    2.9310   51.8480 O.2    13  LYS13      -0.2867
     41  CB        21.8720    5.3510   50.1820 C.3    13  LYS13       0.0271
     42  CG        21.7030    6.2420   48.9800 C.3    13  LYS13       0.0035
     43  CD        21.1410    7.5290   49.3440 C.3    13  LYS13       0.0206
     44  CE        21.9440    8.1760   50.4570 C.3    13  LYS13       0.1093
     45  NZ        21.7470    9.6630   50.3900 N.3    13  LYS13      -0.1314
     46  N         22.4090   13.4160   60.1790 N.3    61  ASP61      -0.1239
     47  CA        22.9490   12.5150   59.1390 C.3    61  ASP61       0.1674
     48  C         23.5520   11.3100   59.8310 C.2    61  ASP61       0.2266
     49  O         24.1810   11.4370   60.8560 O.2    61  ASP61      -0.2867
     50  CB        24.0490   13.2270   58.3570 C.3    61  ASP61       0.1410
     51  CG        24.2410   12.7160   56.9450 C.2    61  ASP61       0.3668
     52  OD1       23.7710   11.6170   56.6040 O.co2  61  ASP61      -0.2456
     53  OD2       24.8730   13.3760   56.0820 O.co2  61  ASP61      -0.2456
     54  N         31.6020    9.0590   57.1630 N.3   135  GLN135     -0.1245
     55  CA        31.1600    9.5970   55.8910 C.3   135  GLN135      0.1566
     56  C         32.3630   10.2410   55.2080 C.2   135  GLN135      0.2260
     57  O         33.1570   10.9270   55.8550 O.2   135  GLN135     -0.2867
     58  CB        30.0330   10.6210   56.0860 C.3   135  GLN135      0.0367
     59  CG        29.2580   10.8620   54.7470 C.3   135  GLN135      0.0905
     60  CD        28.1250   11.8330   55.1160 C.2   135  GLN135      0.2608
     61  OE1       28.4200   12.8840   55.6750 O.2   135  GLN135     -0.2717
     62  NE2       26.8330   11.4110   54.9070 N.am  135  GLN135     -0.0878
     63  N         31.2500   15.8210   49.6780 N.3   160  ASP160     -0.1239
     64  CA        29.9150   15.2200   49.6150 C.3   160  ASP160      0.1674
     65  C         28.6890   16.2190   49.7130 C.2   160  ASP160      0.2266
     66  O         28.1330   16.4530   50.8260 O.2   160  ASP160     -0.2867
     67  CB        29.8490   14.1440   50.7140 C.3   160  ASP160      0.1410
     68  CG        28.5650   13.3810   50.6890 C.2   160  ASP160      0.3668
     69  OD1       27.9140   13.2660   49.6370 O.co2 160  ASP160     -0.2456
     70  OD2       28.0760   12.8370   51.6590 O.co2 160  ASP160     -0.2456
     71  N         25.0630   17.1520   49.8980 N.3   162  GLY162     -0.1210
     72  CA        23.8830   16.4040   50.3260 C.3   162  GLY162      0.1956
     73  C         22.5550   17.1510   50.2560 C.2   162  GLY162      0.2613
     74  O         22.4260   18.1290   49.4910 O.2   162  GLY162     -0.2717
     75  N         21.5350   16.7180   51.0130 N.am  163  SER163     -0.1938
     76  CA        20.2500   17.4540   50.9610 C.3   163  SER163      0.2055
     77  C         20.3430   18.6900   51.8410 C.2   163  SER163      0.2643
     78  O         20.1770   19.8000   51.3400 O.2   163  SER163     -0.2714
     79  CB        19.0390   16.6430   51.3490 C.3   163  SER163      0.2130
     80  OG        19.1620   16.1140   52.6400 O.3   163  SER163     -0.2179
     81  N         20.6700   18.5000   53.1240 N.am  164  ARG164     -0.1963
     82  CA        20.7790   19.6150   54.0690 C.3   164  ARG164      0.1729
     83  C         22.2000   20.1450   54.2600 C.2   164  ARG164      0.2616
     84  O         22.3520   21.3050   54.5530 O.2   164  ARG164     -0.2715
     85  CB        20.1480   19.2600   55.4280 C.3   164  ARG164      0.0348
     86  CG        19.7470   20.5110   56.2400 C.3   164  ARG164      0.0492
     87  CD        18.6000   20.3510   57.2790 C.3   164  ARG164      0.2205
     88  NE        17.3070   20.1200   56.6720 N.pl3 164  ARG164     -0.0865
     89  CZ        16.7130   20.9240   55.7580 C.cat 164  ARG164      0.5346
     90  NH1       17.2840   22.0660   55.3290 N.pl3 164  ARG164      0.1354
     91  NH2       15.5010   20.5920   55.2790 N.pl3 164  ARG164      0.1354
     92  N         23.2180   19.3170   54.0450 N.am  165  THR165     -0.1951
     93  CA        24.6380   19.6140   54.3880 C.3   165  THR165      0.1897
     94  C         25.5880   19.4200   53.1790 C.2   165  THR165      0.2313
     95  O         25.2330   18.7930   52.1800 O.2   165  THR165     -0.2863
     96  CB        25.0950   18.6660   55.5360 C.3   165  THR165      0.1794
     97  OG1       24.9710   17.3260   55.0850 O.3   165  THR165     -0.2208
     98  CG2       24.2910   18.8800   56.8040 C.3   165  THR165      0.0378
     99  N         21.2490   20.8010   49.1600 N.3   188  VAL188     -0.1245
    100  CA        20.4360   21.0180   47.9510 C.3   188  VAL188      0.1561
    101  C         19.0480   21.6460   48.3030 C.2   188  VAL188      0.2260
    102  O         18.5020   22.4880   47.5500 O.2   188  VAL188     -0.2867
    103  CB        20.2990   19.7060   47.1010 C.3   188  VAL188      0.0252
    104  CG1       19.1510   19.7860   46.1280 C.3   188  VAL188      0.0019
    105  CG2       21.5660   19.4100   46.3290 C.3   188  VAL188      0.0019
    106  N         16.2280   24.2520   46.3510 N.3   192  ILE192     -0.1245
    107  CA        14.8230   23.9030   46.2600 C.3   192  ILE192      0.1561
    108  C         14.0250   24.9800   47.0210 C.2   192  ILE192      0.2260
    109  O         13.5490   25.9180   46.4150 O.2   192  ILE192     -0.2867
    110  CB        14.6270   22.4720   46.8670 C.3   192  ILE192      0.0252
    111  CG1       15.4270   21.4430   46.0570 C.3   192  ILE192      0.0019
    112  CG2       13.1720   22.1210   46.9650 C.3   192  ILE192      0.0019
    113  CD1       15.6780   20.1290   46.7630 C.3   192  ILE192      0.0001
    114  N         12.0000   19.8180   44.1390 N.3   213  GLN213     -0.1245
    115  CA        13.2340   19.0290   43.9530 C.3   213  GLN213      0.1566
    116  C         13.4820   18.7460   42.4630 C.2   213  GLN213      0.2260
    117  O         14.5110   19.1400   41.9010 O.2   213  GLN213     -0.2867
    118  CB        13.1060   17.7090   44.7480 C.3   213  GLN213      0.0367
    119  CG        14.2510   16.6710   44.6260 C.3   213  GLN213      0.0905
    120  CD        14.2310   15.6160   45.7650 C.2   213  GLN213      0.2608
    121  OE1       15.2530   15.3810   46.4050 O.2   213  GLN213     -0.2717
    122  NE2       13.0700   15.0060   46.0140 N.am  213  GLN213     -0.0878
    123  N         15.3360   20.5860   37.6040 N.3   217  SER217     -0.1217
    124  CA        15.7280   20.0200   36.3140 C.3   217  SER217      0.1889
    125  C         14.5430   19.4190   35.5300 C.2   217  SER217      0.2288
    126  O         14.7330   18.4570   34.7690 O.2   217  SER217     -0.2866
    127  CB        16.8140   18.9550   36.5120 C.3   217  SER217      0.2089
    128  OG        16.3040   17.8680   37.2240 O.3   217  SER217     -0.2183
    129  N         27.9040   12.5580   46.4300 N.3   265  GLY265     -0.1210
    130  CA        26.5970   12.9910   46.8730 C.3   265  GLY265      0.1956
    131  C         25.7560   13.4760   45.7170 C.2   265  GLY265      0.2612
    132  O         26.2910   13.7540   44.6550 O.2   265  GLY265     -0.2717
    133  N         24.4430   13.5550   45.9160 N.am  266  GLY266     -0.1942
    134  CA        23.5650   13.9370   44.8300 C.3   266  GLY266      0.2014
    135  C         23.8380   15.3450   44.2980 C.2   266  GLY266      0.2639
    136  O         23.8930   15.6090   43.0970 O.2   266  GLY266     -0.2714
    137  N         24.0180   16.2850   45.2020 N.am  267  GLY267     -0.1954
    138  CA        24.2590   17.6270   44.7690 C.3   267  GLY267      0.1869
    139  C         25.3340   17.6890   43.7000 C.2   267  GLY267      0.2309
    140  O         25.2230   18.5330   42.8090 O.2   267  GLY267     -0.2863
    141  N         25.8540   16.0250   41.2550 N.3   269  ASN269     -0.1225
    142  CA        25.1700   15.9170   39.9700 C.3   269  ASN269      0.1785
    143  C         24.6490   17.1860   39.3140 C.2   269  ASN269      0.2597
    144  O         23.9800   17.0980   38.2920 O.2   269  ASN269     -0.2718
    145  CB        23.9650   14.9890   40.1190 C.3   269  ASN269      0.1169
    146  CG        24.3460   13.5520   40.0210 C.2   269  ASN269      0.2627
    147  OD1       24.9390   13.1240   39.0270 O.2   269  ASN269     -0.2716
    148  ND2       24.0180   12.7870   41.0480 N.am  269  ASN269     -0.0877
    149  N         24.8560   18.3510   39.8980 N.am  270  LEU270     -0.1980
    150  CA        24.3780   19.5860   39.2860 C.3   270  LEU270      0.1596
    151  C         25.5140   20.5670   39.3450 C.2   270  LEU270      0.2287
    152  O         25.9330   21.1380   38.3310 O.2   270  LEU270     -0.2864
    153  CB        23.1500   20.1570   39.9970 C.3   270  LEU270      0.0297
    154  CG        22.2200   19.2480   40.8120 C.3   270  LEU270      0.0022
    155  CD1       21.8940   19.9160   42.1470 C.3   270  LEU270      0.0001
    156  CD2       20.9200   18.8930   40.0810 C.3   270  LEU270      0.0001
    157  N         25.6220    9.6680   44.1340 N.3   292  GLN292     -0.1245
    158  CA        24.7480    9.4030   45.2730 C.3   292  GLN292      0.1566
    159  C         25.0600    8.0870   46.0640 C.2   292  GLN292      0.2260
    160  O         24.5700    7.9550   47.1890 O.2   292  GLN292     -0.2867
    161  CB        23.3080    9.2900   44.7960 C.3   292  GLN292      0.0367
    162  CG        22.3700   10.4130   45.2220 C.3   292  GLN292      0.0905
    163  CD        20.8790   10.0290   45.0530 C.2   292  GLN292      0.2608
    164  OE1       20.1070   10.1720   46.0110 O.2   292  GLN292     -0.2717
    165  NE2       20.4860    9.5360   43.8370 N.am  292  GLN292     -0.0878
@<TRIPOS>BOND
     1   126   125    2
     2   125   124    1
     3   124   127    1
     4   124   123    1
     5   127   128    1
     6   144   143    2
     7   152   151    2
     8   147   146    2
     9   150   151    1
    10   150   149    1
    11   150   153    1
    12   143   149   am
    13   143   142    1
    14   142   145    1
    15   142   141    1
    16   153   154    1
    17   146   145    1
    18   146   148   am
    19   156   154    1
    20   154   155    1
    21   117   116    2
    22   116   115    1
    23   140   139    2
    24   136   135    2
    25   139   138    1
    26   165   163   am
    27   115   114    1
    28   115   118    1
    29   157   158    1
    30   135   134    1
    31   135   137   am
    32   119   118    1
    33   119   120    1
    34   132   131    2
    35   138   137    1
    36   161   162    1
    37   161   158    1
    38   134   133    1
    39   163   162    1
    40   163   164    2
    41   158   159    1
    42   131   133   am
    43   131   130    1
    44   120   122   am
    45   120   121    2
    46   111   113    1
    47   111   110    1
    48   159   160    2
    49   104   103    1
    50   107   106    1
    51   107   110    1
    52   107   108    1
    53   105   103    1
    54   109   108    2
    55   129   130    1
    56   110   112    1
    57   103   100    1
    58   102   101    2
    59   100   101    1
    60   100    99    1
    61    35    34   ar
    62    42    43    1
    63    42    41    1
    64    34    36   ar
    65    34    33    1
    66    43    44    1
    67    74    73    2
    68    64    63    1
    69    64    65    1
    70    64    67    1
    71    69    68   ar
    72    65    66    2
    73    33    30    1
    74    71    72    1
    75    41    38    1
    76    73    72    1
    77    73    75   am
    78    45    44    1
    79    38    39    1
    80    38    37    1
    81    68    67    1
    82    68    70   ar
    83    39    40    2
    84    76    75    1
    85    76    79    1
    86    76    77    1
    87    78    77    2
    88    30    29    1
    89    30    31    1
    90    79    80    1
    91    29    27   am
    92    77    81   am
    93    28    27    2
    94    27    26    1
    95    31    32    2
    96    95    94    2
    97     8     6   ar
    98    26    25    1
    99    81    82    1
   100     6     5    1
   101     6     7   ar
   102    94    93    1
   103     5     2    1
   104     4     3    2
   105    25    15   am
   106    92    83   am
   107    92    93    1
   108    82    83    1
   109    82    85    1
   110    83    84    2
   111     1     2    1
   112    93    96    1
   113     2     3    1
   114    59    60    1
   115    59    58    1
   116    62    60   am
   117    15    16    2
   118    15    14    1
   119    97    96    1
   120    60    61    2
   121     9    10    1
   122    10    11    1
   123    56    57    2
   124    56    55    1
   125    91    89    1
   126    90    89    1
   127    85    86    1
   128    11    12    2
   129    11    13   am
   130    96    98    1
   131    13    14    1
   132    89    88    2
   133    55    58    1
   134    55    54    1
   135    17    14    1
   136    17    18    1
   137    53    51   ar
   138    86    87    1
   139    52    51   ar
   140    88    87    1
   141    51    50    1
   142    19    18   ar
   143    19    21   ar
   144    18    20   ar
   145    21    23   ar
   146    50    47    1
   147    20    22   ar
   148    47    48    1
   149    47    46    1
   150    23    22   ar
   151    23    24    1
   152    48    49    2
