@<TRIPOS>MOLECULE
tmp/2fszB01.pdb
 106 101 0 0 0
SMALL
GASTEIGER

@<TRIPOS>ATOM
      1  N         76.0930    9.4270   24.2630 N.3    47  LEU47      -0.1231
      2  CA        75.6630    9.0130   22.9280 C.3    47  LEU47       0.1693
      3  C         74.3840    8.1820   22.9760 C.2    47  LEU47       0.2591
      4  O         73.4800    8.3860   22.1580 O.2    47  LEU47      -0.2718
      5  CB        76.7880    8.2490   22.2250 C.3    47  LEU47       0.0284
      6  CG        77.9650    9.1690   21.8890 C.3    47  LEU47       0.0019
      7  CD1       79.2050    8.3560   21.5490 C.3    47  LEU47       0.0001
      8  CD2       77.5600   10.0830   20.7360 C.3    47  LEU47       0.0001
      9  N         74.3000    7.2420   23.9200 N.am   48  VAL48      -0.1980
     10  CA        73.0790    6.4580   24.0540 C.3    48  VAL48       0.1595
     11  C         71.9660    7.4880   24.2870 C.2    48  VAL48       0.2287
     12  O         70.8790    7.3800   23.7310 O.2    48  VAL48      -0.2864
     13  CB        73.1620    5.4780   25.2590 C.3    48  VAL48       0.0276
     14  CG1       71.7820    4.9130   25.5680 C.3    48  VAL48       0.0022
     15  CG2       74.1180    4.3340   24.9430 C.3    48  VAL48       0.0022
     16  N         72.0360   10.7710   23.3920 N.3    50  MET50      -0.1230
     17  CA        71.8380   11.6020   22.2180 C.3    50  MET50       0.1702
     18  C         70.7580   11.0290   21.2860 C.2    50  MET50       0.2592
     19  O         70.1350   11.7630   20.5250 O.2    50  MET50      -0.2718
     20  CB        73.1600   11.7550   21.4640 C.3    50  MET50       0.0401
     21  CG        73.0990   12.7070   20.2770 C.3    50  MET50       0.0596
     22  SD        74.6230   12.6800   19.3230 S.3    50  MET50      -0.1393
     23  CE        75.7930   13.1800   20.5860 C.3    50  MET50       0.0692
     24  N         70.5430    9.7160   21.3490 N.am   51  ILE51      -0.1980
     25  CA        69.5280    9.0650   20.5100 C.3    51  ILE51       0.1595
     26  C         68.1030    9.4610   20.9210 C.2    51  ILE51       0.2287
     27  O         67.2890    9.8710   20.0800 O.2    51  ILE51      -0.2864
     28  CB        69.6160    7.5070   20.5890 C.3    51  ILE51       0.0276
     29  CG1       70.9900    7.0180   20.1360 C.3    51  ILE51       0.0022
     30  CG2       68.5620    6.8940   19.6880 C.3    51  ILE51       0.0022
     31  CD1       71.3380    7.4460   18.7160 C.3    51  ILE51       0.0001
     32  N         65.2330   11.6810   18.8690 N.3    55  LYS55      -0.1245
     33  CA        63.8850   11.1840   18.6670 C.3    55  LYS55       0.1561
     34  C         62.8000   12.1520   19.1010 C.2    55  LYS55       0.2260
     35  O         61.6650   12.0270   18.6540 O.2    55  LYS55      -0.2867
     36  CB        63.6920    9.8610   19.4100 C.3    55  LYS55       0.0271
     37  CG        64.3910    8.6760   18.7670 C.3    55  LYS55       0.0035
     38  CD        63.9050    7.3730   19.4020 C.3    55  LYS55       0.0206
     39  CE        64.4590    6.1420   18.7060 C.3    55  LYS55       0.1093
     40  NZ        63.9880    4.8780   19.3700 N.3    55  LYS55      -0.1314
     41  N         61.7770   14.2280   13.6100 N.3    60  PHE60      -0.1241
     42  CA        62.9480   13.4040   13.3220 C.3    60  PHE60       0.1605
     43  C         62.5090   11.9590   13.0430 C.2    60  PHE60       0.2264
     44  O         63.0400   11.2880   12.1500 O.2    60  PHE60      -0.2867
     45  CB        63.9210   13.4110   14.5080 C.3    60  PHE60       0.0534
     46  CG        65.2390   12.7620   14.2040 C.ar   60  PHE60      -0.0203
     47  CD1       66.1760   13.4030   13.4030 C.ar   60  PHE60      -0.0042
     48  CD2       65.5430   11.5080   14.7060 C.ar   60  PHE60      -0.0042
     49  CE1       67.4000   12.8010   13.1170 C.ar   60  PHE60      -0.0003
     50  CE2       66.7620   10.9000   14.4220 C.ar   60  PHE60      -0.0003
     51  CZ        67.6920   11.5500   13.6250 C.ar   60  PHE60      -0.0000
     52  N         64.7680    5.7950    8.2450 N.3    65  LEU65      -0.1245
     53  CA        65.7190    5.2890    9.2170 C.3    65  LEU65       0.1561
     54  C         67.1490    5.4930    8.7430 C.2    65  LEU65       0.2260
     55  O         68.0610    5.7510    9.5490 O.2    65  LEU65      -0.2867
     56  CB        65.4790    3.8070    9.4640 C.3    65  LEU65       0.0270
     57  CG        65.9160    3.3460   10.8530 C.3    65  LEU65       0.0019
     58  CD1       64.9480    3.9330   11.8960 C.3    65  LEU65       0.0001
     59  CD2       65.9130    1.8290   10.9140 C.3    65  LEU65       0.0001
     60  N         68.0630    8.9830    9.5040 N.3    68  GLN68      -0.1231
     61  CA        68.2170    9.1930   10.9360 C.3    68  GLN68       0.1698
     62  C         69.6480    8.7940   11.2650 C.2    68  GLN68       0.2592
     63  O         70.4320    9.6040   11.7700 O.2    68  GLN68      -0.2718
     64  CB        67.2420    8.3190   11.7470 C.3    68  GLN68       0.0381
     65  CG        65.8110    8.8370   11.7970 C.3    68  GLN68       0.0905
     66  CD        64.8810    7.9710   12.6570 C.2    68  GLN68       0.2608
     67  OE1       65.1750    7.6780   13.8140 O.2    68  GLN68      -0.2717
     68  NE2       63.7420    7.5760   12.0860 N.am   68  GLN68      -0.0878
     69  N         69.9840    7.5430   10.9530 N.am   69  VAL69      -0.1980
     70  CA        71.3050    7.0060   11.2230 C.3    69  VAL69       0.1595
     71  C         72.4110    7.8460   10.5940 C.2    69  VAL69       0.2287
     72  O         73.4630    8.0410   11.1930 O.2    69  VAL69      -0.2864
     73  CB        71.4100    5.5330   10.7400 C.3    69  VAL69       0.0276
     74  CG1       72.8130    4.9860   10.9790 C.3    69  VAL69       0.0022
     75  CG2       70.3980    4.6830   11.4840 C.3    69  VAL69       0.0022
     76  N         72.9560   11.3530   12.6070 N.3    72  LEU72      -0.1231
     77  CA        73.5660   11.0760   13.8970 C.3    72  LEU72       0.1693
     78  C         74.9950   10.5790   13.7060 C.2    72  LEU72       0.2591
     79  O         75.8800   10.9210   14.4840 O.2    72  LEU72      -0.2718
     80  CB        72.7350   10.0410   14.6750 C.3    72  LEU72       0.0284
     81  CG        71.4520   10.5890   15.3220 C.3    72  LEU72       0.0019
     82  CD1       70.6600    9.4870   16.0010 C.3    72  LEU72       0.0001
     83  CD2       71.8330   11.6580   16.3470 C.3    72  LEU72       0.0001
     84  N         75.2310    9.7840   12.6660 N.am   73  GLU73      -0.1979
     85  CA        76.5700    9.2720   12.4260 C.3    73  GLU73       0.1602
     86  C         77.5180   10.3730   11.9980 C.2    73  GLU73       0.2287
     87  O         78.6780   10.3800   12.3940 O.2    73  GLU73      -0.2864
     88  CB        76.5770    8.1670   11.3500 C.3    73  GLU73       0.0415
     89  CG        77.9850    7.8830   10.7980 C.3    73  GLU73       0.1163
     90  CD        78.0310    6.7280    9.8040 C.2    73  GLU73       0.3649
     91  OE1       77.2360    6.7340    8.8380 O.co2  73  GLU73      -0.2457
     92  OE2       78.8710    5.8130    9.9810 O.co2  73  GLU73      -0.2457
     93  N         77.6070   13.3970   15.4380 N.3    76  TRP76      -0.1241
     94  CA        77.7210   13.1400   16.8780 C.3    76  TRP76       0.1605
     95  C         78.8790   13.7730   17.6580 C.2    76  TRP76       0.2264
     96  O         78.7090   14.0890   18.8300 O.2    76  TRP76      -0.2867
     97  CB        77.6760   11.6380   17.1750 C.3    76  TRP76       0.0550
     98  CG        78.8060   10.8510   16.6210 C.ar   76  TRP76       0.0003
     99  CD1       78.8540   10.2180   15.4090 C.ar   76  TRP76       0.0946
    100  CD2       80.0570   10.5940   17.2570 C.ar   76  TRP76       0.0152
    101  NE1       80.0540    9.5830   15.2580 N.ar   76  TRP76      -0.2442
    102  CE2       80.8150    9.7970   16.3760 C.ar   76  TRP76       0.0810
    103  CE3       80.6140   10.9640   18.4840 C.ar   76  TRP76       0.0012
    104  CZ2       82.1010    9.3610   16.6840 C.ar   76  TRP76       0.0191
    105  CZ3       81.8860   10.5360   18.7880 C.ar   76  TRP76       0.0001
    106  CH2       82.6200    9.7410   17.8940 C.ar   76  TRP76       0.0015
@<TRIPOS>BOND
     1    52    53    1
     2    54    53    1
     3    54    55    2
     4    91    90   ar
     5    53    56    1
     6    56    57    1
     7    60    61    1
     8    90    92   ar
     9    90    89    1
    10    71    72    2
    11    71    70    1
    12    73    74    1
    13    73    70    1
    14    73    75    1
    15    89    88    1
    16    57    59    1
    17    57    58    1
    18    61    62    1
    19    61    64    1
    20    69    70    1
    21    69    62   am
    22    62    63    2
    23    88    85    1
    24    64    65    1
    25    65    66    1
    26    86    87    2
    27    86    85    1
    28    68    66   am
    29    44    43    2
    30    85    84    1
    31    76    77    1
    32    66    67    2
    33    84    78   am
    34    43    42    1
    35    49    47   ar
    36    49    51   ar
    37    42    41    1
    38    42    45    1
    39    47    46   ar
    40    51    50   ar
    41    78    77    1
    42    78    79    2
    43    77    80    1
    44    46    45    1
    45    46    48   ar
    46    50    48   ar
    47    80    81    1
    48   101    99   ar
    49   101   102   ar
    50    81    82    1
    51    81    83    1
    52    99    98   ar
    53    93    94    1
    54   102   104   ar
    55   102   100   ar
    56    98    97    1
    57    98   100   ar
    58   104   106   ar
    59    94    97    1
    60    94    95    1
    61   100   103   ar
    62    95    96    2
    63   106   105   ar
    64   103   105   ar
    65    35    34    2
    66    33    32    1
    67    33    34    1
    68    33    36    1
    69    39    40    1
    70    39    38    1
    71    31    29    1
    72    37    38    1
    73    37    36    1
    74    22    21    1
    75    22    23    1
    76    30    28    1
    77    27    26    2
    78    29    28    1
    79    21    20    1
    80    25    28    1
    81    25    26    1
    82    25    24    1
    83    19    18    2
    84     8     6    1
    85    18    24   am
    86    18    17    1
    87    20    17    1
    88     7     6    1
    89     6     5    1
    90     4     3    2
    91    17    16    1
    92     5     2    1
    93     2     3    1
    94     2     1    1
    95     3     9   am
    96    12    11    2
    97     9    10    1
    98    10    11    1
    99    10    13    1
   100    15    13    1
   101    13    14    1
