@<TRIPOS>MOLECULE
tmp/2fszB00.pdb
 194 184 0 0 0
SMALL
GASTEIGER

@<TRIPOS>ATOM
      1  N         91.5580    8.9640   28.7650 N.3    36  MET36      -0.1245
      2  CA        90.7210    8.6060   27.6210 C.3    36  MET36       0.1570
      3  C         89.6050    7.6570   28.0570 C.2    36  MET36       0.2261
      4  O         88.4600    7.7900   27.6280 O.2    36  MET36      -0.2867
      5  CB        91.5800    7.9550   26.5330 C.3    36  MET36       0.0387
      6  CG        91.0120    8.0910   25.1220 C.3    36  MET36       0.0595
      7  SD        90.6930    9.8200   24.6710 S.3    36  MET36      -0.1393
      8  CE        92.3570   10.4880   24.7560 C.3    36  MET36       0.0692
      9  N         86.8600    9.6850   29.5820 N.3    39  LEU39      -0.1231
     10  CA        86.2050   10.4470   28.5280 C.3    39  LEU39       0.1693
     11  C         85.4350    9.5800   27.5350 C.2    39  LEU39       0.2592
     12  O         84.4270   10.0120   26.9610 O.2    39  LEU39      -0.2718
     13  CB        87.2390   11.3120   27.7940 C.3    39  LEU39       0.0284
     14  CG        87.7830   12.4620   28.6550 C.3    39  LEU39       0.0019
     15  CD1       88.8070   13.2810   27.8740 C.3    39  LEU39       0.0001
     16  CD2       86.6180   13.3460   29.0990 C.3    39  LEU39       0.0001
     17  N         85.8960    8.3510   27.3440 N.am   40  THR40      -0.1953
     18  CA        85.2310    7.4430   26.4210 C.3    40  THR40       0.1897
     19  C         83.9660    6.9260   27.0790 C.2    40  THR40       0.2313
     20  O         82.8830    6.9610   26.4890 O.2    40  THR40      -0.2863
     21  CB        86.1420    6.2780   26.0700 C.3    40  THR40       0.1794
     22  OG1       87.3350    6.7910   25.4640 O.3    40  THR40      -0.2208
     23  CG2       85.4370    5.3160   25.1280 C.3    40  THR40       0.0378
     24  N         82.3770    8.2860   29.3560 N.3    42  LEU42      -0.1231
     25  CA        81.5050    9.4550   29.3820 C.3    42  LEU42       0.1693
     26  C         80.8970    9.7390   28.0030 C.2    42  LEU42       0.2592
     27  O         79.6950    9.9730   27.8810 O.2    42  LEU42      -0.2718
     28  CB        82.3050   10.6600   29.8860 C.3    42  LEU42       0.0284
     29  CG        81.8290   12.0920   29.6340 C.3    42  LEU42       0.0019
     30  CD1       80.4340   12.3320   30.1920 C.3    42  LEU42       0.0001
     31  CD2       82.8370   13.0310   30.2920 C.3    42  LEU42       0.0001
     32  N         81.7190    9.6960   26.9600 N.am   43  ALA43      -0.1966
     33  CA        81.2080    9.9640   25.6190 C.3    43  ALA43       0.1728
     34  C         80.1820    8.9190   25.1900 C.2    43  ALA43       0.2616
     35  O         79.1550    9.2470   24.5940 O.2    43  ALA43      -0.2715
     36  CB        82.3650   10.0380   24.5990 C.3    43  ALA43       0.0334
     37  N         80.4350    7.6590   25.5050 N.am   44  ASP44      -0.1971
     38  CA        79.4870    6.6240   25.1120 C.3    44  ASP44       0.1709
     39  C         78.1250    6.7870   25.8050 C.2    44  ASP44       0.2293
     40  O         77.0730    6.6320   25.1690 O.2    44  ASP44      -0.2864
     41  CB        80.0730    5.2440   25.3940 C.3    44  ASP44       0.1436
     42  CG        81.2740    4.9340   24.5160 C.2    44  ASP44       0.3671
     43  OD1       81.5050    5.6590   23.5140 O.co2  44  ASP44      -0.2456
     44  OD2       81.9760    3.9530   24.8270 O.co2  44  ASP44      -0.2456
     45  N         76.6530    9.5730   26.9780 N.3    46  GLU46      -0.1231
     46  CA        75.9380   10.6860   26.3540 C.3    46  GLU46       0.1699
     47  C         75.3960   10.3170   24.9650 C.2    46  GLU46       0.2592
     48  O         74.3670   10.8400   24.5350 O.2    46  GLU46      -0.2718
     49  CB        76.8490   11.9030   26.2010 C.3    46  GLU46       0.0402
     50  CG        77.3350   12.5230   27.5010 C.3    46  GLU46       0.1161
     51  CD        78.1730   13.7570   27.2280 C.2    46  GLU46       0.3649
     52  OE1       77.6230   14.8690   27.2170 O.co2  46  GLU46      -0.2457
     53  OE2       79.3830   13.6030   26.9880 O.co2  46  GLU46      -0.2457
     54  N         76.0930    9.4270   24.2630 N.am   47  LEU47      -0.1980
     55  CA        75.6630    9.0130   22.9280 C.3    47  LEU47       0.1596
     56  C         74.3840    8.1820   22.9760 C.2    47  LEU47       0.2287
     57  O         73.4800    8.3860   22.1580 O.2    47  LEU47      -0.2864
     58  CB        76.7880    8.2490   22.2250 C.3    47  LEU47       0.0297
     59  CG        77.9650    9.1690   21.8890 C.3    47  LEU47       0.0022
     60  CD1       79.2050    8.3560   21.5490 C.3    47  LEU47       0.0001
     61  CD2       77.5600   10.0830   20.7360 C.3    47  LEU47       0.0001
     62  N         77.6070   13.3970   15.4380 N.3    76  TRP76      -0.1227
     63  CA        77.7210   13.1400   16.8780 C.3    76  TRP76       0.1737
     64  C         78.8790   13.7730   17.6580 C.2    76  TRP76       0.2595
     65  O         78.7090   14.0890   18.8300 O.2    76  TRP76      -0.2718
     66  CB        77.6760   11.6380   17.1750 C.3    76  TRP76       0.0564
     67  CG        78.8060   10.8510   16.6210 C.ar   76  TRP76       0.0003
     68  CD1       78.8540   10.2180   15.4090 C.ar   76  TRP76       0.0946
     69  CD2       80.0570   10.5940   17.2570 C.ar   76  TRP76       0.0152
     70  NE1       80.0540    9.5830   15.2580 N.ar   76  TRP76      -0.2442
     71  CE2       80.8150    9.7970   16.3760 C.ar   76  TRP76       0.0810
     72  CE3       80.6140   10.9640   18.4840 C.ar   76  TRP76       0.0012
     73  CZ2       82.1010    9.3610   16.6840 C.ar   76  TRP76       0.0191
     74  CZ3       81.8860   10.5360   18.7880 C.ar   76  TRP76       0.0001
     75  CH2       82.6200    9.7410   17.8940 C.ar   76  TRP76       0.0015
     76  N         80.0460   13.9600   17.0430 N.am   77  MET77      -0.1979
     77  CA        81.1520   14.5760   17.7770 C.3    77  MET77       0.1605
     78  C         80.9050   16.0680   17.9490 C.2    77  MET77       0.2287
     79  O         81.2520   16.6300   18.9760 O.2    77  MET77      -0.2864
     80  CB        82.4970   14.3540   17.0720 C.3    77  MET77       0.0413
     81  CG        83.6990   15.0300   17.7740 C.3    77  MET77       0.0598
     82  SD        84.1460   14.2890   19.3740 S.3    77  MET77      -0.1393
     83  CE        84.9010   12.7890   18.7640 C.3    77  MET77       0.0692
     84  N         78.3700   16.5870   20.7500 N.3    80  LEU80      -0.1231
     85  CA        78.9910   16.3880   22.0600 C.3    80  LEU80       0.1693
     86  C         79.7800   17.6340   22.4510 C.2    80  LEU80       0.2591
     87  O         79.6080   18.1760   23.5420 O.2    80  LEU80      -0.2718
     88  CB        79.9670   15.2030   22.0360 C.3    80  LEU80       0.0284
     89  CG        79.4650   13.7570   21.9990 C.3    80  LEU80       0.0019
     90  CD1       80.6700   12.7980   21.9860 C.3    80  LEU80       0.0001
     91  CD2       78.5800   13.4900   23.2200 C.3    80  LEU80       0.0001
     92  N         80.6510   18.0670   21.5420 N.am   81  MET81      -0.1979
     93  CA        81.5050   19.2190   21.7770 C.3    81  MET81       0.1605
     94  C         80.7420   20.4940   22.0440 C.2    81  MET81       0.2287
     95  O         81.2220   21.3490   22.7710 O.2    81  MET81      -0.2864
     96  CB        82.4680   19.4160   20.6070 C.3    81  MET81       0.0413
     97  CG        83.6430   18.4380   20.6660 C.3    81  MET81       0.0598
     98  SD        84.6080   18.4360   19.1310 S.3    81  MET81      -0.1393
     99  CE        86.0640   17.6700   19.6880 C.3    81  MET81       0.0692
    100  N         79.3520   20.1810   25.4880 N.3    84  LEU84      -0.1245
    101  CA        80.4890   20.4060   26.3590 C.3    84  LEU84       0.1561
    102  C         80.8270   21.8980   26.4280 C.2    84  LEU84       0.2260
    103  O         81.0290   22.4370   27.5180 O.2    84  LEU84      -0.2867
    104  CB        81.6960   19.6020   25.8550 C.3    84  LEU84       0.0270
    105  CG        83.0330   19.8860   26.5700 C.3    84  LEU84       0.0019
    106  CD1       82.9910   19.3780   28.0100 C.3    84  LEU84       0.0001
    107  CD2       84.1710   19.2370   25.8010 C.3    84  LEU84       0.0001
    108  N         78.0590   23.9150   28.4900 N.3    87  ARG87      -0.1245
    109  CA        78.1310   23.8340   29.9440 C.3    87  ARG87       0.1563
    110  C         79.4500   24.3190   30.5280 C.2    87  ARG87       0.2260
    111  O         79.5890   24.4170   31.7280 O.2    87  ARG87      -0.2867
    112  CB        77.7890   22.4170   30.4490 C.3    87  ARG87       0.0307
    113  CG        78.5150   21.2530   29.8180 C.3    87  ARG87       0.0489
    114  CD        78.0320   19.9080   30.4250 C.3    87  ARG87       0.2205
    115  NE        78.8930   18.7960   30.0210 N.pl3  87  ARG87      -0.0865
    116  CZ        78.8240   18.1720   28.8440 C.cat  87  ARG87       0.5346
    117  NH1       77.9170   18.5280   27.9450 N.pl3  87  ARG87       0.1354
    118  NH2       79.7010   17.2210   28.5460 N.pl3  87  ARG87       0.1354
    119  N         83.3280   18.3780   31.5740 N.3    97  PHE97      -0.1241
    120  CA        82.8230   17.1440   31.0040 C.3    97  PHE97       0.1605
    121  C         81.6710   16.6490   31.8770 C.2    97  PHE97       0.2264
    122  O         80.6000   16.2910   31.3680 O.2    97  PHE97      -0.2867
    123  CB        83.9630   16.1340   30.9160 C.3    97  PHE97       0.0534
    124  CG        84.9960   16.4960   29.8750 C.ar   97  PHE97      -0.0203
    125  CD1       84.7380   16.2940   28.5300 C.ar   97  PHE97      -0.0042
    126  CD2       86.1860   17.1070   30.2390 C.ar   97  PHE97      -0.0042
    127  CE1       85.6400   16.7020   27.5660 C.ar   97  PHE97      -0.0003
    128  CE2       87.0910   17.5190   29.2820 C.ar   97  PHE97      -0.0003
    129  CZ        86.8160   17.3160   27.9410 C.ar   97  PHE97      -0.0000
    130  N         95.7810   15.7490   22.6780 N.3   114  ILE114     -0.1245
    131  CA        94.4770   16.3560   22.9210 C.3   114  ILE114      0.1561
    132  C         94.5630   17.8470   23.2270 C.2   114  ILE114      0.2260
    133  O         93.5690   18.5720   23.1190 O.2   114  ILE114     -0.2867
    134  CB        93.7510   15.6520   24.0760 C.3   114  ILE114      0.0252
    135  CG1       94.4780   15.9140   25.3950 C.3   114  ILE114      0.0019
    136  CG2       93.6920   14.1570   23.8050 C.3   114  ILE114      0.0019
    137  CD1       94.2370   17.2840   25.9800 C.3   114  ILE114      0.0001
    138  N         93.1810   20.1690   20.7960 N.3   117  ILE117     -0.1231
    139  CA        91.7330   20.0080   20.7530 C.3   117  ILE117      0.1692
    140  C         91.1100   20.8180   21.8940 C.2   117  ILE117      0.2592
    141  O         90.1530   21.5710   21.6850 O.2   117  ILE117     -0.2718
    142  CB        91.3310   18.5130   20.9040 C.3   117  ILE117      0.0266
    143  CG1       91.8300   17.7210   19.6970 C.3   117  ILE117      0.0019
    144  CG2       89.8260   18.3800   20.9990 C.3   117  ILE117      0.0020
    145  CD1       91.4560   16.2520   19.7320 C.3   117  ILE117      0.0001
    146  N         91.6740   20.6710   23.0940 N.am  118  PHE118     -0.1976
    147  CA        91.1910   21.3870   24.2740 C.3   118  PHE118      0.1639
    148  C         91.1900   22.8830   24.0490 C.2   118  PHE118      0.2290
    149  O         90.2940   23.5810   24.4900 O.2   118  PHE118     -0.2864
    150  CB        92.0630   21.0750   25.4960 C.3   118  PHE118      0.0560
    151  CG        91.6960   19.7970   26.2020 C.ar  118  PHE118     -0.0200
    152  CD1       90.9070   18.8410   25.5810 C.ar  118  PHE118     -0.0042
    153  CD2       92.1520   19.5520   27.4900 C.ar  118  PHE118     -0.0042
    154  CE1       90.5850   17.6660   26.2270 C.ar  118  PHE118     -0.0003
    155  CE2       91.8340   18.3780   28.1420 C.ar  118  PHE118     -0.0003
    156  CZ        91.0480   17.4320   27.5160 C.ar  118  PHE118     -0.0000
    157  N         88.2870   23.8330   21.7530 N.3   121  LEU121     -0.1245
    158  CA        87.0350   23.8230   22.5120 C.3   121  LEU121      0.1561
    159  C         86.9600   25.0550   23.4070 C.2   121  LEU121      0.2260
    160  O         85.9430   25.7550   23.4410 O.2   121  LEU121     -0.2867
    161  CB        86.9370   22.5440   23.3510 C.3   121  LEU121      0.0270
    162  CG        86.8230   21.3140   22.4490 C.3   121  LEU121      0.0019
    163  CD1       87.3110   20.0880   23.1770 C.3   121  LEU121      0.0001
    164  CD2       85.3670   21.1700   21.9710 C.3   121  LEU121      0.0001
    165  N         89.0650   16.3440   16.3270 N.3   201  GLY201     -0.1225
    166  CA        88.8450   15.3470   17.3530 C.3   201  GLY201      0.1811
    167  C         88.7390   13.9500   16.7660 C.2   201  GLY201      0.2280
    168  O         89.3690   13.0250   17.2700 O.2   201  GLY201     -0.2866
    169  N         92.1150   12.5840   15.7710 N.3   204  HIS204     -0.1226
    170  CA        92.9110   12.2230   16.9430 C.3   204  HIS204      0.1752
    171  C         92.3960   10.9490   17.5920 C.2   204  HIS204      0.2595
    172  O         93.1710   10.1140   18.0400 O.2   204  HIS204     -0.2718
    173  CB        92.8820   13.3480   17.9730 C.3   204  HIS204      0.0759
    174  CG        94.0030   13.2840   18.9630 C.ar  204  HIS204      0.0818
    175  ND1       94.4790   12.0940   19.4730 N.ar  204  HIS204     -0.2268
    176  CD2       94.7170   14.2650   19.5650 C.ar  204  HIS204      0.1154
    177  CE1       95.4360   12.3460   20.3490 C.ar  204  HIS204      0.1986
    178  NE2       95.6000   13.6540   20.4250 N.ar  204  HIS204     -0.2212
    179  N         91.0750   10.8170   17.6450 N.am  205  LEU205     -0.1980
    180  CA        90.4480    9.6430   18.2260 C.3   205  LEU205      0.1596
    181  C         90.7880    8.4130   17.3880 C.2   205  LEU205      0.2287
    182  O         91.1570    7.3610   17.9150 O.2   205  LEU205     -0.2864
    183  CB        88.9350    9.8290   18.2590 C.3   205  LEU205      0.0297
    184  CG        88.1140    8.7480   18.9620 C.3   205  LEU205      0.0022
    185  CD1       88.5240    8.6550   20.4290 C.3   205  LEU205      0.0001
    186  CD2       86.6420    9.0930   18.8500 C.3   205  LEU205      0.0001
    187  N         94.1160    6.7860   17.8690 N.3   208  MET208     -0.1245
    188  CA        94.1830    5.9300   19.0400 C.3   208  MET208      0.1570
    189  C         92.9540    5.0260   19.0340 C.2   208  MET208      0.2261
    190  O         92.9460    3.9620   19.6500 O.2   208  MET208     -0.2867
    191  CB        94.2050    6.7740   20.3160 C.3   208  MET208      0.0387
    192  CG        92.9310    7.5680   20.5580 C.3   208  MET208      0.0595
    193  SD        92.9910    8.5220   22.0950 S.3   208  MET208     -0.1393
    194  CE        93.5310   10.0920   21.4910 C.3   208  MET208      0.0692
@<TRIPOS>BOND
     1    70    68   ar
     2    70    71   ar
     3    68    67   ar
     4    62    63    1
     5   169   170    1
     6   165   166    1
     7    71    73   ar
     8    71    69   ar
     9    67    66    1
    10    67    69   ar
    11    73    75   ar
    12   167   168    2
    13   167   166    1
    14    63    66    1
    15    63    64    1
    16   170   171    1
    17   170   173    1
    18    76    64   am
    19    76    77    1
    20    80    81    1
    21    80    77    1
    22    69    72   ar
    23   181   182    2
    24   181   180    1
    25   171   179   am
    26   171   172    2
    27   179   180    1
    28    64    65    2
    29    81    82    1
    30    77    78    1
    31   187   188    1
    32    75    74   ar
    33    78    79    2
    34   173   174    1
    35   180   183    1
    36   183   184    1
    37    72    74   ar
    38    83    82    1
    39   186   184    1
    40   184   185    1
    41   174   175   ar
    42   174   176   ar
    43   189   188    1
    44   189   190    2
    45   188   191    1
    46    98    99    1
    47    98    97    1
    48   175   177   ar
    49   176   178   ar
    50   143   145    1
    51   143   142    1
    52   191   192    1
    53   177   178   ar
    54   192   193    1
    55    96    97    1
    56    96    93    1
    57    61    59    1
    58    84    85    1
    59   139   138    1
    60   139   142    1
    61   139   140    1
    62   142   144    1
    63   194   193    1
    64    92    93    1
    65    92    86   am
    66    60    59    1
    67   141   140    2
    68   157   158    1
    69    93    94    1
    70    59    58    1
    71   140   146   am
    72   164   162    1
    73    90    89    1
    74    89    88    1
    75    89    91    1
    76    88    85    1
    77    94    95    2
    78    85    86    1
    79    57    56    2
    80    58    55    1
    81   162   163    1
    82   162   161    1
    83    86    87    2
    84   158   161    1
    85   158   159    1
    86   130   131    1
    87   131   132    1
    88   131   134    1
    89    55    56    1
    90    55    54    1
    91   146   147    1
    92   133   132    2
    93   159   160    2
    94    43    42   ar
    95   136   134    1
    96   148   147    1
    97   148   149    2
    98   134   135    1
    99    54    47   am
   100   147   150    1
   101    42    44   ar
   102    42    41    1
   103    48    47    2
   104    35    34    2
   105    36    33    1
   106     7     8    1
   107     7     6    1
   108    47    46    1
   109    38    41    1
   110    38    37    1
   111    38    39    1
   112     6     5    1
   113    23    21    1
   114    40    39    2
   115    34    37   am
   116    34    33    1
   117   135   137    1
   118    22    21    1
   119   100   101    1
   120   150   151    1
   121   152   151   ar
   122   152   154   ar
   123    33    32    1
   124   107   105    1
   125   104   101    1
   126   104   105    1
   127    21    18    1
   128    49    46    1
   129    49    50    1
   130   151   153   ar
   131   154   156   ar
   132    46    45    1
   133   101   102    1
   134    18    19    1
   135    18    17    1
   136   102   103    2
   137    20    19    2
   138     5     2    1
   139   105   106    1
   140    32    26   am
   141    12    11    2
   142    53    51   ar
   143    52    51   ar
   144    51    50    1
   145    17    11   am
   146   153   155   ar
   147   156   155   ar
   148    11    10    1
   149   127   129   ar
   150   127   125   ar
   151     2     3    1
   152     2     1    1
   153     4     3    2
   154    13    10    1
   155    13    14    1
   156    15    14    1
   157    27    26    2
   158   129   128   ar
   159   117   116    1
   160    26    25    1
   161   108   109    1
   162    10     9    1
   163   125   124   ar
   164   118   116    1
   165    14    16    1
   166   116   115    2
   167   128   126   ar
   168    24    25    1
   169    25    28    1
   170    29    28    1
   171    29    30    1
   172    29    31    1
   173   113   114    1
   174   113   112    1
   175   124   126   ar
   176   124   123    1
   177   109   112    1
   178   109   110    1
   179   115   114    1
   180   110   111    2
   181   123   120    1
   182   120   119    1
   183   120   121    1
   184   122   121    2
