@<TRIPOS>MOLECULE
tmp/2ft0B00.pdb
 158 151 0 0 0
SMALL
GASTEIGER

@<TRIPOS>ATOM
      1  N         33.2280   60.7720   84.3370 N.3   101  ALA101     -0.1231
      2  CA        32.1240   59.9900   83.7610 C.3   101  ALA101      0.1694
      3  C         31.2590   60.7380   82.7410 C.2   101  ALA101      0.2592
      4  O         30.6850   60.1180   81.8410 O.2   101  ALA101     -0.2718
      5  CB        31.2470   59.4130   84.8730 C.3   101  ALA101      0.0304
      6  N         31.1630   62.0580   82.8750 N.am  102  PHE102     -0.1976
      7  CA        30.2760   62.8360   82.0070 C.3   102  PHE102      0.1639
      8  C         30.9900   63.8690   81.1460 C.2   102  PHE102      0.2290
      9  O         30.4470   64.9410   80.8870 O.2   102  PHE102     -0.2864
     10  CB        29.1560   63.4780   82.8270 C.3   102  PHE102      0.0560
     11  CG        28.3940   62.4930   83.6640 C.ar  102  PHE102     -0.0200
     12  CD1       27.5250   61.5810   83.0680 C.ar  102  PHE102     -0.0042
     13  CD2       28.5630   62.4570   85.0430 C.ar  102  PHE102     -0.0042
     14  CE1       26.8250   60.6520   83.8370 C.ar  102  PHE102     -0.0003
     15  CE2       27.8610   61.5290   85.8230 C.ar  102  PHE102     -0.0003
     16  CZ        26.9970   60.6310   85.2160 C.ar  102  PHE102     -0.0000
     17  N         15.7220   61.4650   88.0120 N.3   163  ILE163     -0.1231
     18  CA        17.1510   61.2180   88.1600 C.3   163  ILE163      0.1692
     19  C         17.8970   62.2900   87.3910 C.2   163  ILE163      0.2593
     20  O         17.6400   62.4930   86.1980 O.2   163  ILE163     -0.2718
     21  CB        17.5350   59.8180   87.5990 C.3   163  ILE163      0.0266
     22  CG1       16.9720   58.6940   88.4700 C.3   163  ILE163      0.0019
     23  CG2       19.0580   59.6700   87.4510 C.3   163  ILE163      0.0020
     24  CD1       17.0950   57.3120   87.8310 C.3   163  ILE163      0.0001
     25  N         18.8230   62.9650   88.0750 N.am  164  GLY164     -0.1942
     26  CA        19.7300   63.9160   87.4330 C.3   164  GLY164      0.2014
     27  C         20.9220   63.1860   86.8420 C.2   164  GLY164      0.2639
     28  O         21.0330   63.0570   85.6180 O.2   164  GLY164     -0.2714
     29  N         21.8050   62.6850   87.7090 N.am  165  LEU165     -0.1963
     30  CA        22.9630   61.8870   87.2920 C.3   165  LEU165      0.1728
     31  C         22.9730   60.5130   87.9540 C.2   165  LEU165      0.2616
     32  O         22.4930   60.3530   89.0710 O.2   165  LEU165     -0.2715
     33  CB        24.2800   62.6150   87.6050 C.3   165  LEU165      0.0311
     34  CG        24.5090   63.9870   86.9670 C.3   165  LEU165      0.0022
     35  CD1       25.8290   64.5900   87.4620 C.3   165  LEU165      0.0001
     36  CD2       24.4910   63.9130   85.4360 C.3   165  LEU165      0.0001
     37  N         23.5120   59.5280   87.2490 N.am  166  LEU166     -0.1963
     38  CA        23.5870   58.1510   87.7490 C.3   166  LEU166      0.1728
     39  C         24.7970   57.4690   87.1250 C.2   166  LEU166      0.2616
     40  O         24.9480   57.4590   85.9030 O.2   166  LEU166     -0.2715
     41  CB        22.2940   57.3840   87.4150 C.3   166  LEU166      0.0311
     42  CG        22.0840   55.9770   87.9790 C.3   166  LEU166      0.0022
     43  CD1       20.5830   55.6710   88.0590 C.3   166  LEU166      0.0001
     44  CD2       22.8070   54.9370   87.1390 C.3   166  LEU166      0.0001
     45  N         25.6580   56.8950   87.9640 N.am  167  ALA167     -0.1963
     46  CA        26.8800   56.2420   87.4860 C.3   167  ALA167      0.1728
     47  C         27.3920   55.2280   88.4830 C.2   167  ALA167      0.2617
     48  O         27.3490   55.4580   89.6910 O.2   167  ALA167     -0.2715
     49  CB        27.9670   57.2730   87.1850 C.3   167  ALA167      0.0334
     50  N         27.8740   54.1060   87.9610 N.am  168  GLY168     -0.1940
     51  CA        28.4750   53.0640   88.7760 C.3   168  GLY168      0.2014
     52  C         28.4770   51.7430   88.0480 C.2   168  GLY168      0.2639
     53  O         27.4470   51.0830   87.9590 O.2   168  GLY168     -0.2714
     54  N         29.6390   51.3810   87.5060 N.am  169  ARG169     -0.1963
     55  CA        29.8410   50.1190   86.8090 C.3   169  ARG169      0.1729
     56  C         29.3990   48.9800   87.7050 C.2   169  ARG169      0.2616
     57  O         29.8210   48.9020   88.8590 O.2   169  ARG169     -0.2715
     58  CB        31.3270   49.9560   86.4560 C.3   169  ARG169      0.0348
     59  CG        31.6560   48.7820   85.5320 C.3   169  ARG169      0.0492
     60  CD        31.6110   49.1330   84.0490 C.3   169  ARG169      0.2205
     61  NE        32.2920   48.1420   83.2090 N.pl3 169  ARG169     -0.0865
     62  CZ        32.6840   48.3670   81.9580 C.cat 169  ARG169      0.5346
     63  NH1       32.4750   49.5500   81.3900 N.pl3 169  ARG169      0.1354
     64  NH2       33.2970   47.4110   81.2700 N.pl3 169  ARG169      0.1354
     65  N         28.5220   48.1230   87.1850 N.am  170  GLY170     -0.1955
     66  CA        28.0220   46.9690   87.9350 C.3   170  GLY170      0.1869
     67  C         27.0410   47.2840   89.0540 C.2   170  GLY170      0.2309
     68  O         26.5970   46.3760   89.7690 O.2   170  GLY170     -0.2863
     69  N         24.2260   49.3200   88.4380 N.3   172  GLY172     -0.1225
     70  CA        23.0450   49.8860   87.7900 C.3   172  GLY172      0.1811
     71  C         21.7350   49.4650   88.4220 C.2   172  GLY172      0.2280
     72  O         20.8800   50.3110   88.7250 O.2   172  GLY172     -0.2866
     73  N         21.3150   51.0300   91.8180 N.3   175  LEU175     -0.1245
     74  CA        21.0850   52.4750   91.7570 C.3   175  LEU175      0.1561
     75  C         19.6610   52.7890   91.3190 C.2   175  LEU175      0.2260
     76  O         19.0320   53.7200   91.8200 O.2   175  LEU175     -0.2867
     77  CB        22.1050   53.1460   90.8310 C.3   175  LEU175      0.0270
     78  CG        23.5350   53.2190   91.3810 C.3   175  LEU175      0.0019
     79  CD1       24.4960   53.6000   90.2560 C.3   175  LEU175      0.0001
     80  CD2       23.6140   54.2060   92.5470 C.3   175  LEU175      0.0001
     81  N         13.7920   59.6920   83.7670 N.3   193  VAL193     -0.1231
     82  CA        15.2320   59.7580   83.5440 C.3   193  VAL193      0.1692
     83  C         15.5070   59.8660   82.0550 C.2   193  VAL193      0.2592
     84  O         14.9010   59.1490   81.2510 O.2   193  VAL193     -0.2718
     85  CB        15.9850   58.5590   84.1760 C.3   193  VAL193      0.0266
     86  CG1       15.5110   57.2230   83.5820 C.3   193  VAL193      0.0020
     87  CG2       17.5080   58.7140   84.0290 C.3   193  VAL193      0.0020
     88  N         16.3970   60.7800   81.6910 N.am  194  ALA194     -0.1966
     89  CA        16.7790   60.9450   80.2970 C.3   194  ALA194      0.1728
     90  C         18.2140   60.4750   80.0970 C.2   194  ALA194      0.2617
     91  O         19.0210   60.4850   81.0360 O.2   194  ALA194     -0.2715
     92  CB        16.6120   62.4150   79.8700 C.3   194  ALA194      0.0334
     93  N         18.5400   60.0600   78.8810 N.am  195  THR195     -0.1937
     94  CA        19.8980   59.6600   78.5620 C.3   195  THR195      0.2028
     95  C         20.1980   59.9440   77.0960 C.2   195  THR195      0.2642
     96  O         19.2860   60.1410   76.2840 O.2   195  THR195     -0.2714
     97  CB        20.1290   58.1680   78.9240 C.3   195  THR195      0.1808
     98  OG1       21.5030   57.8280   78.6980 O.3   195  THR195     -0.2208
     99  CG2       19.3610   57.2630   77.9900 C.3   195  THR195      0.0379
    100  N         21.4810   59.9880   76.7590 N.am  196  GLN196     -0.1976
    101  CA        21.8750   60.1250   75.3600 C.3   196  GLN196      0.1601
    102  C         21.4850   58.8900   74.5650 C.2   196  GLN196      0.2287
    103  O         21.5670   57.7790   75.0620 O.2   196  GLN196     -0.2864
    104  CB        23.3870   60.3000   75.2730 C.3   196  GLN196      0.0394
    105  CG        23.8870   61.5200   76.0290 C.3   196  GLN196      0.0908
    106  CD        25.3930   61.4910   76.1580 C.2   196  GLN196      0.2608
    107  OE1       25.9480   60.5350   76.6960 O.2   196  GLN196     -0.2717
    108  NE2       26.0560   62.5190   75.6490 N.am  196  GLN196     -0.0878
    109  N         23.9620   56.0150   74.5350 N.3   199  ASN199     -0.1240
    110  CA        24.2710   55.3660   75.8060 C.3   199  ASN199      0.1653
    111  C         23.4200   54.1140   75.9590 C.2   199  ASN199      0.2266
    112  O         22.4920   54.0540   76.7820 O.2   199  ASN199     -0.2867
    113  CB        24.0550   56.3240   76.9760 C.3   199  ASN199      0.1155
    114  CG        24.7320   55.8540   78.2340 C.2   199  ASN199      0.2627
    115  OD1       25.0970   54.6670   78.3650 O.2   199  ASN199     -0.2716
    116  ND2       24.9130   56.7740   79.1750 N.am  199  ASN199     -0.0877
    117  N         24.1710   51.1950   77.2530 N.3   201  ALA201     -0.1231
    118  CA        24.2510   50.6090   78.6020 C.3   201  ALA201      0.1694
    119  C         23.1950   51.2190   79.5450 C.2   201  ALA201      0.2591
    120  O         22.4920   50.5000   80.2810 O.2   201  ALA201     -0.2718
    121  CB        25.6610   50.7510   79.1810 C.3   201  ALA201      0.0304
    122  N         23.0530   52.5450   79.4950 N.am  202  ALA202     -0.1980
    123  CA        22.0370   53.2080   80.3110 C.3   202  ALA202      0.1597
    124  C         20.6330   52.8470   79.8770 C.2   202  ALA202      0.2287
    125  O         19.7890   52.5200   80.7130 O.2   202  ALA202     -0.2864
    126  CB        22.2180   54.6990   80.2780 C.3   202  ALA202      0.0319
    127  N         19.7290   49.3510   80.9810 N.3   205  ARG205     -0.1231
    128  CA        19.4790   49.3010   82.4220 C.3   205  ARG205      0.1694
    129  C         18.1200   49.9030   82.7840 C.2   205  ARG205      0.2592
    130  O         17.3610   49.3240   83.5530 O.2   205  ARG205     -0.2718
    131  CB        20.6150   49.9600   83.2120 C.3   205  ARG205      0.0321
    132  CG        20.3290   50.1060   84.7130 C.3   205  ARG205      0.0489
    133  CD        20.0260   48.7740   85.4180 C.3   205  ARG205      0.2205
    134  NE        21.1120   47.8200   85.1850 N.pl3 205  ARG205     -0.0865
    135  CZ        21.0250   46.4990   85.3290 C.cat 205  ARG205      0.5346
    136  NH1       19.8930   45.9240   85.7130 N.pl3 205  ARG205      0.1354
    137  NH2       22.0870   45.7470   85.0690 N.pl3 205  ARG205      0.1354
    138  N         17.7940   51.0660   82.2200 N.am  206  TYR206     -0.1976
    139  CA        16.5080   51.6840   82.5230 C.3   206  TYR206      0.1639
    140  C         15.3510   50.7760   82.1230 C.2   206  TYR206      0.2290
    141  O         14.3860   50.6010   82.8740 O.2   206  TYR206     -0.2864
    142  CB        16.3760   53.0530   81.8450 C.3   206  TYR206      0.0560
    143  CG        17.4690   54.0260   82.2580 C.ar  206  TYR206     -0.0198
    144  CD1       18.0500   53.9480   83.5260 C.ar  206  TYR206     -0.0009
    145  CD2       17.8860   55.0320   81.4040 C.ar  206  TYR206     -0.0009
    146  CE1       19.0620   54.8290   83.9280 C.ar  206  TYR206      0.0417
    147  CE2       18.9080   55.9210   81.7920 C.ar  206  TYR206      0.0417
    148  CZ        19.4790   55.8100   83.0570 C.ar  206  TYR206      0.1957
    149  OH        20.4840   56.6820   83.4570 O.3   206  TYR206     -0.2866
    150  N         15.4350   47.4710   81.6810 N.3   208  GLN208     -0.1245
    151  CA        15.4770   46.2970   82.5770 C.3   208  GLN208      0.1566
    152  C         14.7790   46.5640   83.9010 C.2   208  GLN208      0.2260
    153  O         14.2310   45.6400   84.5110 O.2   208  GLN208     -0.2867
    154  CB        16.9290   45.8710   82.8320 C.3   208  GLN208      0.0367
    155  CG        17.4990   45.0310   81.6940 C.3   208  GLN208      0.0905
    156  CD        19.0190   45.1290   81.5170 C.2   208  GLN208      0.2608
    157  OE1       19.5360   44.8090   80.4320 O.2   208  GLN208     -0.2717
    158  NE2       19.7310   45.5630   82.5570 N.am  208  GLN208     -0.0878
@<TRIPOS>BOND
     1   109   110    1
     2   102   103    2
     3   102   101    1
     4   104   101    1
     5   104   105    1
     6   101   100    1
     7   108   106   am
     8   110   111    1
     9   110   113    1
    10   111   112    2
    11   105   106    1
    12   106   107    2
    13    96    95    2
    14   100    95   am
    15   113   114    1
    16    95    94    1
    17   117   118    1
    18    99    97    1
    19   114   115    2
    20   114   116   am
    21    94    93    1
    22    94    97    1
    23   118   121    1
    24   118   119    1
    25    98    97    1
    26    93    90   am
    27   122   119   am
    28   122   123    1
    29   119   120    2
    30    92    89    1
    31   124   123    1
    32   124   125    2
    33    90    89    1
    34    90    91    2
    35   126   123    1
    36    89    88    1
    37   157   156    2
    38     9     8    2
    39   127   128    1
    40     8     7    1
    41    84    83    2
    42    64    62    1
    43    63    62    1
    44   145   147   ar
    45   145   143   ar
    46   156   155    1
    47   156   158   am
    48   150   151    1
    49    88    83   am
    50   155   154    1
    51   147   148   ar
    52     4     3    2
    53   142   143    1
    54   142   139    1
    55    62    61    2
    56     7    10    1
    57     7     6    1
    58    83    82    1
    59   140   139    1
    60   140   141    2
    61   138   139    1
    62   138   129   am
    63   143   144   ar
    64   128   129    1
    65   128   131    1
    66   151   154    1
    67   151   152    1
    68     3     6   am
    69     3     2    1
    70   129   130    2
    71    10    11    1
    72   148   149    1
    73   148   146   ar
    74    12    11   ar
    75    12    14   ar
    76    61    60    1
    77   131   132    1
    78   144   146   ar
    79    82    81    1
    80    82    85    1
    81    86    85    1
    82    11    13   ar
    83     2     1    1
    84     2     5    1
    85    14    16   ar
    86   152   153    2
    87    87    85    1
    88    60    59    1
    89   132   133    1
    90    13    15   ar
    91   137   135    1
    92   134   135    2
    93   134   133    1
    94    16    15   ar
    95   135   136    1
    96    36    34    1
    97    59    58    1
    98    28    27    2
    99    40    39    2
   100    20    19    2
   101    58    55    1
   102    55    54    1
   103    55    56    1
   104    27    26    1
   105    27    29   am
   106    34    35    1
   107    34    33    1
   108    39    38    1
   109    39    45   am
   110    44    42    1
   111    65    56   am
   112    65    66    1
   113    49    46    1
   114    37    38    1
   115    37    31   am
   116    30    33    1
   117    30    29    1
   118    30    31    1
   119    19    25   am
   120    19    18    1
   121    41    38    1
   122    41    42    1
   123    26    25    1
   124    23    21    1
   125    46    45    1
   126    46    47    1
   127    54    52   am
   128    21    18    1
   129    21    22    1
   130    56    57    2
   131    70    71    1
   132    70    69    1
   133    24    22    1
   134    66    67    1
   135    31    32    2
   136    53    52    2
   137    50    47   am
   138    50    51    1
   139    42    43    1
   140    17    18    1
   141    52    51    1
   142    71    72    2
   143    47    48    2
   144    67    68    2
   145    79    78    1
   146    77    78    1
   147    77    74    1
   148    75    74    1
   149    75    76    2
   150    78    80    1
   151    74    73    1
