@<TRIPOS>MOLECULE
tmp/2ft2A00.pdb
 132 128 0 0 0
SMALL
GASTEIGER

@<TRIPOS>ATOM
      1  N         53.8360   85.7900   84.4400 N.3    19  GLN19      -0.1245
      2  CA        55.0430   86.3060   85.0840 C.3    19  GLN19       0.1566
      3  C         55.6970   87.4930   84.3800 C.2    19  GLN19       0.2260
      4  O         56.4930   88.2140   84.9820 O.2    19  GLN19      -0.2867
      5  CB        56.0800   85.1880   85.2630 C.3    19  GLN19       0.0367
      6  CG        56.6450   84.6220   83.9700 C.3    19  GLN19       0.0905
      7  CD        57.6600   83.5190   84.2200 C.2    19  GLN19       0.2608
      8  OE1       58.8560   83.6830   83.9660 O.2    19  GLN19      -0.2717
      9  NE2       57.1870   82.3920   84.7290 N.am   19  GLN19      -0.0878
     10  N         61.7800   86.6310   85.8780 N.3    23  GLY23      -0.1225
     11  CA        61.9770   85.1900   85.9640 C.3    23  GLY23       0.1811
     12  C         61.5470   84.6050   87.2930 C.2    23  GLY23       0.2280
     13  O         62.3670   84.0780   88.0510 O.2    23  GLY23      -0.2866
     14  N         59.2930   82.0830   87.6530 N.3    25  CYS25      -0.1221
     15  CA        58.6210   80.8010   87.4460 C.3    25  CYS25       0.1808
     16  C         58.6530   79.9410   88.7040 C.2    25  CYS25       0.2601
     17  O         57.6670   79.2910   89.0480 O.2    25  CYS25      -0.2717
     18  CB        59.2650   80.0300   86.2890 C.3    25  CYS25       0.0970
     19  SG        61.0220   79.6270   86.5360 S.3    25  CYS25      -0.0800
     20  N         59.7910   79.9430   89.3890 N.am   26  TRP26      -0.1976
     21  CA        59.9500   79.1540   90.6040 C.3    26  TRP26       0.1640
     22  C         58.9580   79.5720   91.6880 C.2    26  TRP26       0.2290
     23  O         58.4540   78.7310   92.4310 O.2    26  TRP26      -0.2864
     24  CB        61.3760   79.3020   91.1350 C.3    26  TRP26       0.0576
     25  CG        61.7600   80.7280   91.3960 C.ar   26  TRP26       0.0006
     26  CD1       62.1540   81.6540   90.4750 C.ar   26  TRP26       0.0946
     27  CD2       61.7490   81.4010   92.6590 C.ar   26  TRP26       0.0152
     28  NE1       62.3940   82.8630   91.0860 N.ar   26  TRP26      -0.2442
     29  CE2       62.1540   82.7320   92.4370 C.ar   26  TRP26       0.0810
     30  CE3       61.4410   81.0010   93.9700 C.ar   26  TRP26       0.0012
     31  CZ2       62.2530   83.6790   93.4630 C.ar   26  TRP26       0.0191
     32  CZ3       61.5390   81.9410   94.9990 C.ar   26  TRP26       0.0001
     33  CH2       61.9460   83.2630   94.7370 C.ar   26  TRP26       0.0015
     34  N         69.1900   81.0400   98.5660 N.3    62  GLY62      -0.1225
     35  CA        69.8430   80.7930   97.2920 C.3    62  GLY62       0.1811
     36  C         69.0330   81.2400   96.0890 C.2    62  GLY62       0.2280
     37  O         69.3100   80.8190   94.9640 O.2    62  GLY62      -0.2866
     38  N         67.2680   84.2970   93.5080 N.3    64  LYS64      -0.1245
     39  CA        67.6290   85.5860   92.9290 C.3    64  LYS64       0.1561
     40  C         66.4480   86.3670   92.3520 C.2    64  LYS64       0.2260
     41  O         66.6020   87.1010   91.3740 O.2    64  LYS64      -0.2867
     42  CB        68.6920   85.3810   91.8430 C.3    64  LYS64       0.0271
     43  CG        69.9890   84.7600   92.3520 C.3    64  LYS64       0.0035
     44  CD        71.0080   84.6060   91.2300 C.3    64  LYS64       0.0206
     45  CE        72.2810   83.9400   91.7310 C.3    64  LYS64       0.1093
     46  NZ        73.2970   83.7640   90.6530 N.3    64  LYS64      -0.1314
     47  N         65.5530   86.7620   88.6890 N.3    67  ASN67      -0.1225
     48  CA        66.6130   86.0840   87.9550 C.3    67  ASN67       0.1785
     49  C         66.7100   84.5950   88.3030 C.2    67  ASN67       0.2598
     50  O         67.7540   83.9680   88.1120 O.2    67  ASN67      -0.2718
     51  CB        67.9580   86.7830   88.1830 C.3    67  ASN67       0.1169
     52  CG        68.1280   88.0140   87.3030 C.2    67  ASN67       0.2627
     53  OD1       68.1730   87.9120   86.0750 O.2    67  ASN67      -0.2716
     54  ND2       68.2140   89.1830   87.9260 N.am   67  ASN67      -0.0877
     55  N         65.6160   84.0340   88.8170 N.am   68  GLY68      -0.1942
     56  CA        65.5900   82.6150   89.1340 C.3    68  GLY68       0.2014
     57  C         65.6080   82.2060   90.5960 C.2    68  GLY68       0.2639
     58  O         65.9710   82.9910   91.4720 O.2    68  GLY68      -0.2714
     59  N         65.2180   80.9590   90.8530 N.am   69  GLY69      -0.1939
     60  CA        65.1880   80.4500   92.2160 C.3    69  GLY69       0.2014
     61  C         64.7890   78.9850   92.2820 C.2    69  GLY69       0.2639
     62  O         64.6230   78.3350   91.2470 O.2    69  GLY69      -0.2714
     63  N         64.6350   78.4670   93.4990 N.am   70  PHE70      -0.1959
     64  CA        64.2600   77.0670   93.7170 C.3    70  PHE70       0.1771
     65  C         62.8950   76.9610   94.3840 C.2    70  PHE70       0.2619
     66  O         62.5780   77.7450   95.2720 O.2    70  PHE70      -0.2715
     67  CB        65.2570   76.3620   94.6450 C.3    70  PHE70       0.0574
     68  CG        66.6770   76.3740   94.1580 C.ar   70  PHE70      -0.0200
     69  CD1       67.5940   77.2880   94.6680 C.ar   70  PHE70      -0.0042
     70  CD2       67.1120   75.4330   93.2320 C.ar   70  PHE70      -0.0042
     71  CE1       68.9250   77.2690   94.2550 C.ar   70  PHE70      -0.0003
     72  CE2       68.4420   75.4060   92.8100 C.ar   70  PHE70      -0.0003
     73  CZ        69.3490   76.3210   93.3280 C.ar   70  PHE70      -0.0000
     74  N         62.0980   75.9770   93.9820 N.am   71  MET71      -0.1963
     75  CA        60.7950   75.7980   94.6080 C.3    71  MET71       0.1736
     76  C         60.9580   75.2600   96.0330 C.2    71  MET71       0.2617
     77  O         60.2520   75.6850   96.9430 O.2    71  MET71      -0.2715
     78  CB        59.9170   74.8410   93.7900 C.3    71  MET71       0.0427
     79  CG        59.4110   75.4130   92.4650 C.3    71  MET71       0.0599
     80  SD        60.6050   75.3040   91.1140 S.3    71  MET71      -0.1393
     81  CE        60.3940   73.5750   90.6310 C.3    71  MET71       0.0692
     82  N         61.8970   74.3370   96.2290 N.am   72  THR72      -0.1951
     83  CA        62.1180   73.7590   97.5530 C.3    72  THR72       0.1897
     84  C         62.5330   74.7850   98.6000 C.2    72  THR72       0.2313
     85  O         62.0210   74.7720   99.7230 O.2    72  THR72      -0.2863
     86  CB        63.1900   72.6400   97.5290 C.3    72  THR72       0.1794
     87  OG1       64.4120   73.1500   96.9780 O.3    72  THR72      -0.2208
     88  CG2       62.7090   71.4510   96.7030 C.3    72  THR72       0.0378
     89  N         60.5860   70.9950   87.4560 N.3   137  GLY137     -0.1225
     90  CA        61.3600   71.8140   86.5460 C.3   137  GLY137      0.1811
     91  C         61.3880   71.0760   85.2180 C.2   137  GLY137      0.2280
     92  O         61.4350   69.8470   85.2000 O.2   137  GLY137     -0.2866
     93  N         66.9420   70.8190   83.2160 N.3   162  VAL162     -0.1231
     94  CA        65.7780   71.6750   83.4090 C.3   162  VAL162      0.1692
     95  C         66.1150   73.1270   83.7130 C.2   162  VAL162      0.2592
     96  O         67.1130   73.4240   84.3690 O.2   162  VAL162     -0.2718
     97  CB        64.8570   71.1030   84.5100 C.3   162  VAL162      0.0266
     98  CG1       64.5290   69.6430   84.1900 C.3   162  VAL162      0.0020
     99  CG2       65.5250   71.2100   85.8730 C.3   162  VAL162      0.0020
    100  N         65.2650   74.0320   83.2380 N.am  163  ASN163     -0.1960
    101  CA        65.4910   75.4570   83.4310 C.3   163  ASN163      0.1819
    102  C         64.2390   76.2670   83.7260 C.2   163  ASN163      0.2621
    103  O         64.3330   77.4540   84.0380 O.2   163  ASN163     -0.2715
    104  CB        66.1540   76.0350   82.1850 C.3   163  ASN163      0.1195
    105  CG        65.4120   75.6640   80.9120 C.2   163  ASN163      0.2630
    106  OD1       65.9520   74.9780   80.0490 O.2   163  ASN163     -0.2716
    107  ND2       64.1710   76.1020   80.7970 N.am  163  ASN163     -0.0877
    108  N         63.0740   75.6370   83.6310 N.am  164  HIS164     -0.1959
    109  CA        61.8180   76.3440   83.8590 C.3   164  HIS164      0.1787
    110  C         60.9390   75.6380   84.8930 C.2   164  HIS164      0.2620
    111  O         60.6220   74.4600   84.7490 O.2   164  HIS164     -0.2715
    112  CB        61.0780   76.4700   82.5230 C.3   164  HIS164      0.0785
    113  CG        59.8340   77.3130   82.5900 C.ar  164  HIS164      0.0821
    114  ND1       59.8370   78.5910   83.0730 N.ar  164  HIS164     -0.2267
    115  CD2       58.5670   77.0410   82.1950 C.ar  164  HIS164      0.1154
    116  CE1       58.6060   79.0950   82.9760 C.ar  164  HIS164      0.1986
    117  NE2       57.8290   78.1790   82.4500 N.ar  164  HIS164     -0.2212
    118  N         60.5480   76.3730   85.9300 N.am  165  GLY165     -0.1954
    119  CA        59.7200   75.8020   86.9780 C.3   165  GLY165      0.1869
    120  C         58.2420   75.9140   86.6600 C.2   165  GLY165      0.2309
    121  O         57.7540   77.0000   86.3450 O.2   165  GLY165     -0.2863
    122  N         63.3380   66.9390   89.1700 N.3   211  PHE211     -0.1241
    123  CA        63.3060   67.5140   90.5130 C.3   211  PHE211      0.1605
    124  C         61.9000   67.9010   90.9780 C.2   211  PHE211      0.2264
    125  O         61.5630   69.0880   91.0520 O.2   211  PHE211     -0.2867
    126  CB        64.2170   68.7420   90.5840 C.3   211  PHE211      0.0534
    127  CG        65.6500   68.4560   90.2230 C.ar  211  PHE211     -0.0203
    128  CD1       66.1460   68.8020   88.9700 C.ar  211  PHE211     -0.0042
    129  CD2       66.5030   67.8410   91.1360 C.ar  211  PHE211     -0.0042
    130  CE1       67.4720   68.5320   88.6260 C.ar  211  PHE211     -0.0003
    131  CE2       67.8320   67.5660   90.8000 C.ar  211  PHE211     -0.0003
    132  CZ        68.3160   67.9180   89.5450 C.ar  211  PHE211     -0.0000
@<TRIPOS>BOND
     1   106   105    2
     2   107   105   am
     3   105   104    1
     4   104   101    1
     5   115   117   ar
     6   115   113   ar
     7   117   116   ar
     8   112   113    1
     9   112   109    1
    10   113   114   ar
    11   116   114   ar
    12    93    94    1
    13   100   101    1
    14   100    95   am
    15    94    95    1
    16    94    97    1
    17   101   102    1
    18   108   102   am
    19   108   109    1
    20    95    96    2
    21   102   103    2
    22   109   110    1
    23     8     7    2
    24     6     7    1
    25     6     5    1
    26    98    97    1
    27     7     9   am
    28     3     4    2
    29     3     2    1
    30     1     2    1
    31    97    99    1
    32   111   110    2
    33   110   118   am
    34     2     5    1
    35    92    91    2
    36    91    90    1
    37    10    11    1
    38   118   119    1
    39    11    12    1
    40    53    52    2
    41    18    19    1
    42    18    15    1
    43   121   120    2
    44    90    89    1
    45   120   119    1
    46    12    13    2
    47    52    54   am
    48    52    51    1
    49    15    14    1
    50    15    16    1
    51    48    51    1
    52    48    49    1
    53    48    47    1
    54    50    49    2
    55    49    55   am
    56   130   128   ar
    57   130   132   ar
    58    16    17    2
    59    16    20   am
    60    55    56    1
    61   128   127   ar
    62    56    57    1
    63   122   123    1
    64    20    21    1
    65   132   131   ar
    66   127   126    1
    67   127   129   ar
    68    26    28   ar
    69    26    25   ar
    70   123   126    1
    71   123   124    1
    72    57    59   am
    73    57    58    2
    74    21    24    1
    75    21    22    1
    76    81    80    1
    77    46    45    1
    78   131   129   ar
    79    59    60    1
    80   124   125    2
    81    28    29   ar
    82    80    79    1
    83    24    25    1
    84    44    45    1
    85    44    43    1
    86    62    61    2
    87    41    40    2
    88    25    27   ar
    89    22    23    2
    90    42    43    1
    91    42    39    1
    92    60    61    1
    93    61    63   am
    94    40    39    1
    95    29    27   ar
    96    29    31   ar
    97    79    78    1
    98    27    30   ar
    99    72    70   ar
   100    72    73   ar
   101    39    38    1
   102    70    68   ar
   103    73    71   ar
   104    31    33   ar
   105    63    64    1
   106    64    65    1
   107    64    67    1
   108    78    75    1
   109    30    32   ar
   110    74    65   am
   111    74    75    1
   112    68    67    1
   113    68    69   ar
   114    71    69   ar
   115    65    66    2
   116    75    76    1
   117    33    32   ar
   118    37    36    2
   119    76    82   am
   120    76    77    2
   121    36    35    1
   122    82    83    1
   123    88    86    1
   124    87    86    1
   125    35    34    1
   126    86    83    1
   127    83    84    1
   128    84    85    2
