@<TRIPOS>MOLECULE
tmp/2fu8B00.pdb
 122 120 0 0 0
SMALL
GASTEIGER

@<TRIPOS>ATOM
      1  N         14.8220   24.0040   12.3810 N.3    10  TYR10      -0.1241
      2  CA        15.2750   23.8040   11.0210 C.3    10  TYR10       0.1605
      3  C         15.8870   22.3980   10.9490 C.2    10  TYR10       0.2264
      4  O         17.0390   22.1870   11.3630 O.2    10  TYR10      -0.2867
      5  CB        16.2950   24.8840   10.6650 C.3    10  TYR10       0.0534
      6  CG        16.8920   24.7640    9.3000 C.ar   10  TYR10      -0.0201
      7  CD1       16.1130   24.4580    8.1950 C.ar   10  TYR10      -0.0009
      8  CD2       18.2620   24.9800    9.1040 C.ar   10  TYR10      -0.0009
      9  CE1       16.6760   24.3620    6.9340 C.ar   10  TYR10       0.0417
     10  CE2       18.8230   24.8810    7.8450 C.ar   10  TYR10       0.0417
     11  CZ        18.0350   24.5840    6.7760 C.ar   10  TYR10       0.1957
     12  OH        18.6070   24.4940    5.5370 O.3    10  TYR10      -0.2866
     13  N         23.1340   15.5390    5.5140 N.3    16  TRP16      -0.1241
     14  CA        23.6900   16.8720    5.7980 C.3    16  TRP16       0.1605
     15  C         24.4020   16.9180    7.1620 C.2    16  TRP16       0.2264
     16  O         25.2480   17.7810    7.4030 O.2    16  TRP16      -0.2867
     17  CB        22.5970   17.9370    5.7970 C.3    16  TRP16       0.0550
     18  CG        21.9450   18.2260    4.4860 C.ar   16  TRP16       0.0003
     19  CD1       21.7700   17.3760    3.4090 C.ar   16  TRP16       0.0946
     20  CD2       21.3060   19.4400    4.1320 C.ar   16  TRP16       0.0152
     21  NE1       21.0800   18.0170    2.4080 N.ar   16  TRP16      -0.2442
     22  CE2       20.7900   19.2870    2.8250 C.ar   16  TRP16       0.0810
     23  CE3       21.1210   20.6600    4.7900 C.ar   16  TRP16       0.0012
     24  CZ2       20.0940   20.2930    2.1840 C.ar   16  TRP16       0.0191
     25  CZ3       20.4300   21.6470    4.1600 C.ar   16  TRP16       0.0001
     26  CH2       19.9230   21.4590    2.8730 C.ar   16  TRP16       0.0015
     27  N         27.6720   31.8810    1.9380 N.3    83  HIS83      -0.1241
     28  CA        26.5490   32.7350    2.3400 C.3    83  HIS83       0.1621
     29  C         26.1100   32.4730    3.7620 C.2    83  HIS83       0.2264
     30  O         26.3090   31.3820    4.3080 O.2    83  HIS83      -0.2867
     31  CB        25.3960   32.6550    1.3540 C.3    83  HIS83       0.0745
     32  CG        24.6590   31.3600    1.3590 C.ar   83  HIS83       0.0817
     33  ND1       25.0900   30.2580    0.6460 N.ar   83  HIS83      -0.2268
     34  CD2       23.4510   31.0250    1.8810 C.ar   83  HIS83       0.1154
     35  CE1       24.2080   29.2820    0.7800 C.ar   83  HIS83       0.1986
     36  NE2       23.2010   29.7200    1.5220 N.ar   83  HIS83      -0.2212
     37  N         23.5120   31.6120    5.5270 N.3    85  HIS85      -0.1241
     38  CA        22.3750   30.7930    5.9580 C.3    85  HIS85       0.1621
     39  C         22.7970   29.8200    7.0470 C.2    85  HIS85       0.2264
     40  O         23.9840   29.4970    7.1500 O.2    85  HIS85      -0.2867
     41  CB        21.7690   30.0420    4.7680 C.3    85  HIS85       0.0745
     42  CG        20.8020   30.8600    3.9690 C.ar   85  HIS85       0.0817
     43  ND1       20.4000   30.5050    2.6940 N.ar   85  HIS85      -0.2268
     44  CD2       20.1610   32.0210    4.2610 C.ar   85  HIS85       0.1154
     45  CE1       19.5260   31.3940    2.2540 C.ar   85  HIS85       0.1986
     46  NE2       19.3530   32.3180    3.1900 N.ar   85  HIS85      -0.2212
     47  N         22.7300   26.6990    7.4050 N.3    87  ASP87      -0.1225
     48  CA        23.3730   25.4380    7.0280 C.3    87  ASP87       0.1805
     49  C         24.7720   25.6260    6.4750 C.2    87  ASP87       0.2597
     50  O         25.3780   24.6690    6.0310 O.2    87  ASP87      -0.2718
     51  CB        22.5010   24.6170    6.0640 C.3    87  ASP87       0.1424
     52  CG        22.1890   25.3360    4.7550 C.2    87  ASP87       0.3668
     53  OD1       21.9840   26.5760    4.7290 O.co2  87  ASP87      -0.2456
     54  OD2       22.0650   24.6950    3.6870 O.co2  87  ASP87      -0.2456
     55  N         25.2810   26.8670    6.5040 N.am   88  HIS88      -0.1975
     56  CA        26.6500   27.1460    6.1160 C.3    88  HIS88       0.1656
     57  C         27.4420   27.9450    7.1350 C.2    88  HIS88       0.2291
     58  O         28.6410   27.7410    7.2710 O.2    88  HIS88      -0.2864
     59  CB        26.6730   27.8110    4.7220 C.3    88  HIS88       0.0771
     60  CG        25.8540   27.0600    3.7330 C.ar   88  HIS88       0.0820
     61  ND1       26.2730   25.8580    3.2040 N.ar   88  HIS88      -0.2267
     62  CD2       24.5990   27.2660    3.2700 C.ar   88  HIS88       0.1154
     63  CE1       25.3130   25.3680    2.4370 C.ar   88  HIS88       0.1986
     64  NE2       24.2900   26.2110    2.4460 N.ar   88  HIS88      -0.2212
     65  N         12.8080   33.6360    3.7490 N.3   123  PHE123     -0.1241
     66  CA        12.4170   32.6460    4.7470 C.3   123  PHE123      0.1605
     67  C         11.9900   33.2440    6.0860 C.2   123  PHE123      0.2264
     68  O         11.6790   32.4910    7.0100 O.2   123  PHE123     -0.2867
     69  CB        13.5730   31.6950    4.9910 C.3   123  PHE123      0.0534
     70  CG        13.9330   30.8880    3.7880 C.ar  123  PHE123     -0.0203
     71  CD1       13.0000   30.0530    3.1950 C.ar  123  PHE123     -0.0042
     72  CD2       15.1980   30.9540    3.2440 C.ar  123  PHE123     -0.0042
     73  CE1       13.3400   29.2980    2.0640 C.ar  123  PHE123     -0.0003
     74  CE2       15.5380   30.1900    2.1230 C.ar  123  PHE123     -0.0003
     75  CZ        14.6100   29.3760    1.5440 C.ar  123  PHE123     -0.0000
     76  N         14.6980   30.0710    9.5330 N.3   127  ILE127     -0.1245
     77  CA        16.0220   29.4570    9.5450 C.3   127  ILE127      0.1561
     78  C         17.0070   30.3250   10.2770 C.2   127  ILE127      0.2260
     79  O         17.8420   30.9480    9.6770 O.2   127  ILE127     -0.2867
     80  CB        16.5210   29.1550    8.0960 C.3   127  ILE127      0.0252
     81  CG1       16.4850   30.4190    7.2120 C.3   127  ILE127      0.0019
     82  CG2       15.6320   28.1110    7.4720 C.3   127  ILE127      0.0019
     83  CD1       17.0480   30.2350    5.8160 C.3   127  ILE127      0.0001
     84  N         21.2380   34.0380   -4.3790 N.3   159  HIS159     -0.1241
     85  CA        20.7870   33.1220   -3.3550 C.3   159  HIS159      0.1621
     86  C         20.6270   33.8850   -2.0230 C.2   159  HIS159      0.2264
     87  O         19.6090   33.7710   -1.3470 O.2   159  HIS159     -0.2867
     88  CB        21.7330   31.9360   -3.2070 C.3   159  HIS159      0.0745
     89  CG        21.2420   30.9170   -2.2320 C.ar  159  HIS159      0.0817
     90  ND1       20.2820   29.9890   -2.5580 N.ar  159  HIS159     -0.2268
     91  CD2       21.5580   30.6960   -0.9310 C.ar  159  HIS159      0.1154
     92  CE1       20.0300   29.2320   -1.5030 C.ar  159  HIS159      0.1986
     93  NE2       20.8000   29.6320   -0.5040 N.ar  159  HIS159     -0.2212
     94  N         25.9700   28.7630   -3.7980 N.3   184  SER184     -0.1217
     95  CA        24.6930   28.3630   -4.3290 C.3   184  SER184      0.1889
     96  C         24.1480   29.3760   -5.3520 C.2   184  SER184      0.2288
     97  O         24.2570   30.6080   -5.1620 O.2   184  SER184     -0.2866
     98  CB        23.6810   28.2650   -3.1880 C.3   184  SER184      0.2089
     99  OG        24.0670   27.3260   -2.1920 O.3   184  SER184     -0.2183
    100  N         20.8320   28.5230   -6.4560 N.3   186  SER186     -0.1217
    101  CA        19.4400   28.1230   -6.3310 C.3   186  SER186      0.1889
    102  C         18.5840   29.2840   -5.7910 C.2   186  SER186      0.2288
    103  O         19.0970   30.2510   -5.2040 O.2   186  SER186     -0.2866
    104  CB        19.3360   26.9520   -5.3910 C.3   186  SER186      0.2089
    105  OG        19.8000   27.3540   -4.1120 O.3   186  SER186     -0.2183
    106  N         15.3350   28.5030   -3.8320 N.3   188  PRO188     -0.2116
    107  CA        14.3610   27.5160   -3.3120 C.3   188  PRO188      0.1372
    108  C         13.0950   28.1760   -2.7120 C.2   188  PRO188      0.2244
    109  O         13.1200   28.7570   -1.6210 O.2   188  PRO188     -0.2868
    110  CB        15.1520   26.7950   -2.2380 C.3   188  PRO188      0.0268
    111  CG        16.1990   27.8180   -1.8320 C.3   188  PRO188      0.0207
    112  CD        16.5910   28.4960   -3.0600 C.3   188  PRO188      0.0892
    113  N         26.7300   22.9310   -1.1070 N.3   224  HIS224     -0.1241
    114  CA        26.0240   21.6470   -1.2280 C.3   224  HIS224      0.1621
    115  C         26.7490   20.8990   -2.3140 C.2   224  HIS224      0.2264
    116  O         26.6960   21.3180   -3.4780 O.2   224  HIS224     -0.2867
    117  CB        24.5600   21.8580   -1.6000 C.3   224  HIS224      0.0745
    118  CG        23.7820   22.5250   -0.5050 C.ar  224  HIS224      0.0817
    119  ND1       23.3430   21.8270    0.5950 N.ar  224  HIS224     -0.2268
    120  CD2       23.4220   23.8190   -0.3060 C.ar  224  HIS224      0.1154
    121  CE1       22.7170   22.6610    1.4140 C.ar  224  HIS224      0.1986
    122  NE2       22.7390   23.8670    0.8860 N.ar  224  HIS224     -0.2212
@<TRIPOS>BOND
     1   100   101    1
     2   101   102    1
     3   101   104    1
     4   102   103    2
     5   104   105    1
     6    96    97    2
     7    96    95    1
     8    84    85    1
     9    95    94    1
    10    95    98    1
    11   106   107    1
    12   106   112    1
    13   116   115    2
    14    85    88    1
    15    85    86    1
    16   107   108    1
    17   107   110    1
    18    88    89    1
    19    98    99    1
    20   112   111    1
    21   108   109    2
    22    90    89   ar
    23    90    92   ar
    24   115   114    1
    25   110   111    1
    26    89    91   ar
    27    86    87    2
    28   117   114    1
    29   117   118    1
    30    92    93   ar
    31   114   113    1
    32    91    93   ar
    33   118   120   ar
    34   118   119   ar
    35   120   122   ar
    36   119   121   ar
    37    33    35   ar
    38    33    32   ar
    39    35    36   ar
    40   122   121   ar
    41    31    32    1
    42    31    28    1
    43    32    34   ar
    44    36    34   ar
    45    75    73   ar
    46    75    74   ar
    47    27    28    1
    48    73    71   ar
    49    74    72   ar
    50    24    22   ar
    51    24    26   ar
    52    45    43   ar
    53    45    46   ar
    54    28    29    1
    55    21    22   ar
    56    21    19   ar
    57    63    64   ar
    58    63    61   ar
    59    64    62   ar
    60    43    42   ar
    61    22    20   ar
    62    26    25   ar
    63    46    44   ar
    64    71    70   ar
    65    61    60   ar
    66    72    70   ar
    67    62    60   ar
    68    19    18   ar
    69    54    52   ar
    70    60    59    1
    71    65    66    1
    72    29    30    2
    73    70    69    1
    74    42    44   ar
    75    42    41    1
    76    20    18   ar
    77    20    23   ar
    78    25    23   ar
    79    18    17    1
    80    59    56    1
    81    53    52   ar
    82    66    69    1
    83    66    67    1
    84    52    51    1
    85    41    38    1
    86    13    14    1
    87    37    38    1
    88    12    11    1
    89    17    14    1
    90    14    15    1
    91    83    81    1
    92    38    39    1
    93    50    49    2
    94    51    48    1
    95    67    68    2
    96    56    55    1
    97    56    57    1
    98    49    55   am
    99    49    48    1
   100    11     9   ar
   101    11    10   ar
   102     9     7   ar
   103    48    47    1
   104    39    40    2
   105    57    58    2
   106    15    16    2
   107    81    80    1
   108    82    80    1
   109    10     8   ar
   110    80    77    1
   111     7     6   ar
   112     8     6   ar
   113     6     5    1
   114    76    77    1
   115    77    78    1
   116    79    78    2
   117     5     2    1
   118     3     2    1
   119     3     4    2
   120     2     1    1
