@<TRIPOS>MOLECULE
tmp/2fu9A00.pdb
 142 140 0 0 0
SMALL
GASTEIGER

@<TRIPOS>ATOM
      1  N         16.9160   21.2510   18.0760 N.3     8  ARG8       -0.1231
      2  CA        15.7370   21.0620   18.9160 C.3     8  ARG8        0.1694
      3  C         15.1360   22.4270   19.1750 C.2     8  ARG8        0.2592
      4  O         15.8170   23.3190   19.6970 O.2     8  ARG8       -0.2718
      5  CB        16.1410   20.4170   20.2420 C.3     8  ARG8        0.0321
      6  CG        16.3370   18.9120   20.1520 C.3     8  ARG8        0.0489
      7  CD        17.3330   18.3130   21.1410 C.3     8  ARG8        0.2205
      8  NE        17.1590   18.8190   22.5040 N.pl3   8  ARG8       -0.0865
      9  CZ        18.1290   19.3390   23.2670 C.cat   8  ARG8        0.5346
     10  NH1       19.3810   19.4400   22.8230 N.pl3   8  ARG8        0.1354
     11  NH2       17.8420   19.7730   24.4900 N.pl3   8  ARG8        0.1354
     12  N         13.8840   22.6090   18.7670 N.am    9  ALA9       -0.1966
     13  CA        13.1740   23.8540   19.0260 C.3     9  ALA9        0.1728
     14  C         12.8620   24.0070   20.5070 C.2     9  ALA9        0.2616
     15  O         12.6720   23.0340   21.2330 O.2     9  ALA9       -0.2715
     16  CB        11.8690   23.9010   18.2180 C.3     9  ALA9        0.0334
     17  N         12.7780   25.2530   20.9490 N.am   10  TYR10      -0.1974
     18  CA        12.3450   25.5470   22.3050 C.3    10  TYR10       0.1639
     19  C         10.8230   25.3440   22.3730 C.2    10  TYR10       0.2290
     20  O         10.0520   26.2240   21.9790 O.2    10  TYR10      -0.2864
     21  CB        12.7550   26.9940   22.6480 C.3    10  TYR10       0.0560
     22  CG        12.3900   27.4830   24.0340 C.ar   10  TYR10      -0.0198
     23  CD1       12.1010   28.8280   24.2420 C.ar   10  TYR10      -0.0009
     24  CD2       12.3630   26.6300   25.1320 C.ar   10  TYR10      -0.0009
     25  CE1       11.7830   29.3100   25.5010 C.ar   10  TYR10       0.0417
     26  CE2       12.0370   27.1080   26.4120 C.ar   10  TYR10       0.0417
     27  CZ        11.7520   28.4550   26.5750 C.ar   10  TYR10       0.1957
     28  OH        11.4300   28.9640   27.8110 O.3    10  TYR10      -0.2866
     29  N          1.2510   28.4090   27.7200 N.3    16  TRP16      -0.1241
     30  CA         2.1670   29.5320   27.4540 C.3    16  TRP16       0.1605
     31  C          1.9040   30.1670   26.0840 C.2    16  TRP16       0.2264
     32  O          2.2870   31.3190   25.8240 O.2    16  TRP16      -0.2867
     33  CB         3.6210   29.0550   27.4680 C.3    16  TRP16       0.0550
     34  CG         4.1820   28.5820   28.7520 C.ar   16  TRP16       0.0003
     35  CD1        3.5150   28.0260   29.8040 C.ar   16  TRP16       0.0946
     36  CD2        5.5700   28.5670   29.1050 C.ar   16  TRP16       0.0152
     37  NE1        4.4010   27.6820   30.7970 N.ar   16  TRP16      -0.2442
     38  CE2        5.6720   28.0010   30.3920 C.ar   16  TRP16       0.0810
     39  CE3        6.7510   28.9650   28.4500 C.ar   16  TRP16       0.0012
     40  CZ2        6.9010   27.8450   31.0560 C.ar   16  TRP16       0.0191
     41  CZ3        7.9870   28.7880   29.1110 C.ar   16  TRP16       0.0001
     42  CH2        8.0480   28.2430   30.3860 C.ar   16  TRP16       0.0015
     43  N         13.7110   40.1510   31.6350 N.3    83  HIS83      -0.1241
     44  CA        15.0160   39.6140   31.2470 C.3    83  HIS83       0.1621
     45  C         14.9550   39.0790   29.8160 C.2    83  HIS83       0.2264
     46  O         13.8790   38.7860   29.3160 O.2    83  HIS83      -0.2867
     47  CB        15.4820   38.5530   32.2520 C.3    83  HIS83       0.0745
     48  CG        14.6930   37.2830   32.2280 C.ar   83  HIS83       0.0817
     49  ND1       13.4940   37.1330   32.9020 N.ar   83  HIS83      -0.2268
     50  CD2       14.9640   36.0780   31.6640 C.ar   83  HIS83       0.1154
     51  CE1       13.0560   35.8910   32.7380 C.ar   83  HIS83       0.1986
     52  NE2       13.9140   35.2410   31.9660 N.ar   83  HIS83      -0.2212
     53  N         15.4470   36.3780   28.0060 N.3    85  HIS85      -0.1241
     54  CA        15.2710   34.9890   27.5670 C.3    85  HIS85       0.1621
     55  C         14.1860   34.9040   26.5110 C.2    85  HIS85       0.2264
     56  O         13.3090   35.7720   26.4470 O.2    85  HIS85      -0.2867
     57  CB        14.9270   34.0690   28.7470 C.3    85  HIS85       0.0745
     58  CG        16.1220   33.5980   29.5100 C.ar   85  HIS85       0.0817
     59  ND1       16.0210   33.0600   30.7780 N.ar   85  HIS85      -0.2268
     60  CD2       17.4480   33.6150   29.2060 C.ar   85  HIS85       0.1154
     61  CE1       17.2310   32.7480   31.2140 C.ar   85  HIS85       0.1986
     62  NE2       18.1130   33.0630   30.2770 N.ar   85  HIS85      -0.2212
     63  N         11.4810   33.2540   26.0420 N.3    87  ASP87      -0.1225
     64  CA        10.0870   33.2400   26.4640 C.3    87  ASP87       0.1805
     65  C          9.5760   34.5570   27.0360 C.2    87  ASP87       0.2597
     66  O          8.4170   34.6140   27.4460 O.2    87  ASP87      -0.2718
     67  CB         9.7950   32.0700   27.4310 C.3    87  ASP87       0.1424
     68  CG        10.6410   32.0740   28.7020 C.2    87  ASP87       0.3668
     69  OD1       11.8060   32.5620   28.7430 O.co2  87  ASP87      -0.2456
     70  OD2       10.1840   31.6020   29.7600 O.co2  87  ASP87      -0.2456
     71  N         10.4110   35.6050   27.0670 N.am   88  HIS88      -0.1975
     72  CA         9.9630   36.9520   27.4800 C.3    88  HIS88       0.1656
     73  C         10.2940   38.0420   26.4740 C.2    88  HIS88       0.2291
     74  O          9.5050   38.9670   26.2950 O.2    88  HIS88      -0.2864
     75  CB        10.5410   37.2860   28.8370 C.3    88  HIS88       0.0771
     76  CG        10.3040   36.1970   29.8200 C.ar   88  HIS88       0.0820
     77  ND1        9.0470   35.9190   30.3160 N.ar   88  HIS88      -0.2267
     78  CD2       11.1180   35.2300   30.2830 C.ar   88  HIS88       0.1154
     79  CE1        9.1150   34.8410   31.0850 C.ar   88  HIS88       0.1986
     80  NE2       10.3620   34.4150   31.0920 N.ar   88  HIS88      -0.2212
     81  N         22.3070   27.9780   29.7160 N.3   123  PHE123     -0.1241
     82  CA        21.5970   27.1710   28.7070 C.3   123  PHE123      0.1605
     83  C         22.3720   27.0570   27.3970 C.2   123  PHE123      0.2264
     84  O         21.8920   26.4150   26.4610 O.2   123  PHE123     -0.2867
     85  CB        20.2410   27.7920   28.3600 C.3   123  PHE123      0.0534
     86  CG        19.3020   27.9450   29.5270 C.ar  123  PHE123     -0.0203
     87  CD1       19.2010   26.9690   30.5020 C.ar  123  PHE123     -0.0042
     88  CD2       18.5040   29.0680   29.6190 C.ar  123  PHE123     -0.0042
     89  CE1       18.3070   27.1150   31.5540 C.ar  123  PHE123     -0.0003
     90  CE2       17.6200   29.2200   30.6730 C.ar  123  PHE123     -0.0003
     91  CZ        17.5180   28.2450   31.6270 C.ar  123  PHE123     -0.0000
     92  N         20.7280   26.6400   23.7140 N.3   126  GLY126     -0.1210
     93  CA        19.4790   25.8830   23.7780 C.3   126  GLY126      0.1956
     94  C         18.2130   26.6830   23.5030 C.2   126  GLY126      0.2611
     95  O         17.2420   26.1620   22.9560 O.2   126  GLY126     -0.2717
     96  N         18.1950   27.9500   23.9040 N.am  127  ILE127     -0.1979
     97  CA        17.0080   28.7840   23.7360 C.3   127  ILE127      0.1595
     98  C         17.3600   30.1170   23.0470 C.2   127  ILE127      0.2287
     99  O         17.3340   31.1760   23.6410 O.2   127  ILE127     -0.2864
    100  CB        16.2490   28.9550   25.1100 C.3   127  ILE127      0.0276
    101  CG1       17.1360   29.5580   26.2060 C.3   127  ILE127      0.0022
    102  CG2       15.7300   27.6000   25.6010 C.3   127  ILE127      0.0022
    103  CD1       16.3420   30.2490   27.3380 C.3   127  ILE127      0.0001
    104  N         18.7360   35.4030   37.9790 N.3   159  HIS159     -0.1241
    105  CA        18.1320   34.6000   36.9380 C.3   159  HIS159      0.1621
    106  C         18.8440   34.8640   35.6070 C.2   159  HIS159      0.2264
    107  O         19.1430   33.9370   34.8490 O.2   159  HIS159     -0.2867
    108  CB        16.6190   34.8400   36.8370 C.3   159  HIS159      0.0745
    109  CG        15.9640   33.9830   35.8080 C.ar  159  HIS159      0.0817
    110  ND1       15.5940   32.6800   36.0540 N.ar  159  HIS159     -0.2268
    111  CD2       15.6330   34.2330   34.5180 C.ar  159  HIS159      0.1154
    112  CE1       15.0720   32.1610   34.9570 C.ar  159  HIS159      0.1986
    113  NE2       15.1020   33.0760   34.0060 N.ar  159  HIS159     -0.2212
    114  N         11.8110   36.9520   37.4310 N.3   184  SER184     -0.1217
    115  CA        12.0710   35.6380   37.9430 C.3   184  SER184      0.1889
    116  C         13.1950   35.6100   38.9610 C.2   184  SER184      0.2288
    117  O         14.2240   36.2760   38.8090 O.2   184  SER184     -0.2866
    118  CB        12.3990   34.7050   36.7670 C.3   184  SER184      0.2089
    119  OG        11.3380   34.7360   35.7970 O.3   184  SER184     -0.2183
    120  N         14.0310   32.3520   39.9760 N.3   186  SER186     -0.1217
    121  CA        14.2770   30.9160   39.8390 C.3   186  SER186      0.1889
    122  C         15.6680   30.7350   39.2530 C.2   186  SER186      0.2288
    123  O         16.2390   31.6710   38.7100 O.2   186  SER186     -0.2866
    124  CB        13.2570   30.3220   38.8840 C.3   186  SER186      0.2089
    125  OG        13.4070   30.8810   37.5630 O.3   186  SER186     -0.2183
    126  N         16.5150   27.6290   37.1070 N.3   188  PRO188     -0.2116
    127  CA        16.1020   26.3210   36.5960 C.3   188  PRO188      0.1372
    128  C         17.2310   25.5500   35.9390 C.2   188  PRO188      0.2244
    129  O         17.6640   25.8910   34.8440 O.2   188  PRO188     -0.2868
    130  CB        15.0050   26.6660   35.5860 C.3   188  PRO188      0.0268
    131  CG        15.3480   28.0340   35.1300 C.3   188  PRO188      0.0207
    132  CD        15.9270   28.7230   36.3230 C.3   188  PRO188      0.0892
    133  N          6.3420   34.8540   34.5200 N.3   224  HIS224     -0.1241
    134  CA         5.5310   33.6450   34.5970 C.3   224  HIS224      0.1621
    135  C          4.5100   33.9460   35.6910 C.2   224  HIS224      0.2264
    136  O          4.8800   34.0870   36.8470 O.2   224  HIS224     -0.2867
    137  CB         6.3980   32.4470   34.9630 C.3   224  HIS224      0.0745
    138  CG         7.3930   32.1070   33.9060 C.ar  224  HIS224      0.0817
    139  ND1        7.0610   31.3450   32.8050 N.ar  224  HIS224     -0.2268
    140  CD2        8.6850   32.4820   33.7360 C.ar  224  HIS224      0.1154
    141  CE1        8.1180   31.2540   32.0060 C.ar  224  HIS224      0.1986
    142  NE2        9.1220   31.9110   32.5580 N.ar  224  HIS224     -0.2212
@<TRIPOS>BOND
     1     1     2    1
     2    16    13    1
     3    12    13    1
     4    12     3   am
     5     2     3    1
     6     2     5    1
     7    13    14    1
     8     3     4    2
     9     6     5    1
    10     6     7    1
    11    14    17   am
    12    14    15    2
    13    17    18    1
    14     7     8    1
    15    20    19    2
    16    18    19    1
    17    18    21    1
    18     8     9    2
    19    21    22    1
    20    10     9    1
    21    95    94    2
    22    98    99    2
    23    98    97    1
    24     9    11    1
    25    94    93    1
    26    94    96   am
    27    92    93    1
    28    97    96    1
    29    97   100    1
    30    22    23   ar
    31    22    24   ar
    32    23    25   ar
    33   100   102    1
    34   100   101    1
    35    24    26   ar
    36    25    27   ar
    37    32    31    2
    38    63    64    1
    39    31    30    1
    40   101   103    1
    41    74    73    2
    42    26    27   ar
    43    56    55    2
    44    84    83    2
    45    64    65    1
    46    64    67    1
    47    73    72    1
    48    55    54    1
    49    27    28    1
    50    65    71   am
    51    65    66    2
    52    71    72    1
    53    83    82    1
    54    67    68    1
    55    30    33    1
    56    30    29    1
    57    33    34    1
    58    72    75    1
    59    54    53    1
    60    54    57    1
    61    85    82    1
    62    85    86    1
    63    39    36   ar
    64    39    41   ar
    65    68    69   ar
    66    68    70   ar
    67    82    81    1
    68    57    58    1
    69    34    36   ar
    70    34    35   ar
    71    75    76    1
    72    36    38   ar
    73    41    42   ar
    74    60    58   ar
    75    60    62   ar
    76    46    45    2
    77    58    59   ar
    78    86    88   ar
    79    86    87   ar
    80    88    90   ar
    81    35    37   ar
    82    45    44    1
    83    76    78   ar
    84    76    77   ar
    85    62    61   ar
    86    78    80   ar
    87    77    79   ar
    88    42    40   ar
    89    38    37   ar
    90    38    40   ar
    91    87    89   ar
    92    90    91   ar
    93    59    61   ar
    94    79    80   ar
    95    44    43    1
    96    44    47    1
    97    89    91   ar
    98    50    52   ar
    99    50    48   ar
   100    52    51   ar
   101   141   142   ar
   102   141   139   ar
   103    48    47    1
   104    48    49   ar
   105   142   140   ar
   106    51    49   ar
   107   139   138   ar
   108   140   138   ar
   109   138   137    1
   110   113   111   ar
   111   113   112   ar
   112   111   109   ar
   113   133   134    1
   114   134   137    1
   115   134   135    1
   116   129   128    2
   117   107   106    2
   118   112   110   ar
   119   131   130    1
   120   131   132    1
   121   130   127    1
   122   106   105    1
   123   135   136    2
   124   119   118    1
   125   109   110   ar
   126   109   108    1
   127   128   127    1
   128   132   126    1
   129   127   126    1
   130   118   115    1
   131   108   105    1
   132   105   104    1
   133   114   115    1
   134   125   124    1
   135   115   116    1
   136   123   122    2
   137   117   116    2
   138   124   121    1
   139   122   121    1
   140   121   120    1
