@<TRIPOS>MOLECULE
tmp/2fudA00.pdb
 139 136 0 0 0
SMALL
GASTEIGER

@<TRIPOS>ATOM
      1  N         37.5700   62.8790   17.1060 N.3    20  GLN20      -0.1245
      2  CA        38.3380   62.7900   15.8650 C.3    20  GLN20       0.1566
      3  C         37.5930   62.1630   14.6920 C.2    20  GLN20       0.2260
      4  O         37.9800   62.3470   13.5410 O.2    20  GLN20      -0.2867
      5  CB        39.6320   62.0120   16.1060 C.3    20  GLN20       0.0367
      6  CG        39.4230   60.5570   16.4800 C.3    20  GLN20       0.0905
      7  CD        40.7370   59.8390   16.7160 C.2    20  GLN20       0.2608
      8  OE1       41.1190   58.9490   15.9560 O.2    20  GLN20      -0.2717
      9  NE2       41.4390   60.2300   17.7650 N.am   20  GLN20      -0.0878
     10  N         42.3200   59.4310   11.5890 N.3    24  GLY24      -0.1225
     11  CA        43.2880   59.0020   12.5890 C.3    24  GLY24       0.1811
     12  C         44.1820   60.1440   13.0390 C.2    24  GLY24       0.2280
     13  O         45.3870   60.1500   12.7760 O.2    24  GLY24      -0.2866
     14  N         44.5860   61.0790   16.3150 N.3    26  CYS26      -0.1221
     15  CA        44.8430   60.9600   17.7520 C.3    26  CYS26       0.1808
     16  C         46.1450   61.6460   18.1390 C.2    26  CYS26       0.2601
     17  O         46.2320   62.2930   19.1820 O.2    26  CYS26      -0.2717
     18  CB        44.9000   59.4880   18.1700 C.3    26  CYS26       0.0970
     19  SG        46.1940   58.5180   17.3300 S.3    26  CYS26      -0.0800
     20  N         47.1600   61.5010   17.2930 N.am   27  TRP27      -0.1976
     21  CA        48.4590   62.1080   17.5470 C.3    27  TRP27       0.1640
     22  C         48.3550   63.6270   17.6030 C.2    27  TRP27       0.2290
     23  O         48.9950   64.2750   18.4340 O.2    27  TRP27      -0.2864
     24  CB        49.4500   61.7200   16.4460 C.3    27  TRP27       0.0576
     25  CG        48.9860   62.1060   15.0730 C.ar   27  TRP27       0.0006
     26  CD1       48.0690   61.4500   14.3030 C.ar   27  TRP27       0.0946
     27  CD2       49.4050   63.2450   14.3150 C.ar   27  TRP27       0.0152
     28  NE1       47.8890   62.1110   13.1120 N.ar   27  TRP27      -0.2442
     29  CE2       48.6950   63.2200   13.0960 C.ar   27  TRP27       0.0810
     30  CE3       50.3060   64.2940   14.5520 C.ar   27  TRP27       0.0012
     31  CZ2       48.8680   64.1940   12.1070 C.ar   27  TRP27       0.0191
     32  CZ3       50.4760   65.2660   13.5680 C.ar   27  TRP27       0.0001
     33  CH2       49.7540   65.2090   12.3630 C.ar   27  TRP27       0.0015
     34  N         57.3330   63.2910    8.9190 N.3    63  GLY63      -0.1210
     35  CA        57.0680   61.8650    8.9990 C.3    63  GLY63       0.1956
     36  C         55.6290   61.5180    9.3230 C.2    63  GLY63       0.2612
     37  O         55.3280   60.3710    9.6440 O.2    63  GLY63      -0.2717
     38  N         54.7350   62.5000    9.2360 N.am   64  ASN64      -0.1960
     39  CA        53.3270   62.2700    9.5350 C.3    64  ASN64       0.1819
     40  C         52.4970   62.0160    8.2840 C.2    64  ASN64       0.2621
     41  O         52.8800   62.4040    7.1810 O.2    64  ASN64      -0.2715
     42  CB        52.7610   63.4530   10.3290 C.3    64  ASN64       0.1195
     43  CG        53.4550   63.6260   11.6640 C.2    64  ASN64       0.2630
     44  OD1       53.7460   62.6460   12.3480 O.2    64  ASN64      -0.2716
     45  ND2       53.7200   64.8710   12.0470 N.am   64  ASN64      -0.0877
     46  N         51.3540   61.3620    8.4700 N.am   65  LYS65      -0.1977
     47  CA        50.4710   61.0180    7.3630 C.3    65  LYS65       0.1596
     48  C         49.0250   61.4730    7.5500 C.2    65  LYS65       0.2287
     49  O         48.0960   60.7940    7.1090 O.2    65  LYS65      -0.2864
     50  CB        50.5030   59.5010    7.1390 C.3    65  LYS65       0.0298
     51  CG        51.8970   58.9750    6.8370 C.3    65  LYS65       0.0038
     52  CD        51.8980   57.4730    6.6290 C.3    65  LYS65       0.0206
     53  CE        53.2640   57.0020    6.1630 C.3    65  LYS65       0.1093
     54  NZ        53.2860   55.5390    5.8950 N.3    65  LYS65      -0.1314
     55  N         45.4010   61.9280    8.4100 N.3    67  CYS67      -0.1221
     56  CA        44.3810   61.0470    8.9660 C.3    67  CYS67       0.1808
     57  C         44.8270   59.5960    9.0500 C.2    67  CYS67       0.2601
     58  O         44.0850   58.7400    9.5280 O.2    67  CYS67      -0.2717
     59  CB        43.0890   61.1480    8.1520 C.3    67  CYS67       0.0970
     60  SG        42.2590   62.7540    8.3630 S.3    67  CYS67      -0.0800
     61  N         46.0350   59.3190    8.5760 N.am   68  ASN68      -0.1960
     62  CA        46.5620   57.9650    8.6290 C.3    68  ASN68       0.1819
     63  C         47.6540   57.8100    9.6880 C.2    68  ASN68       0.2622
     64  O         48.3860   56.8200    9.6940 O.2    68  ASN68      -0.2715
     65  CB        47.0810   57.5390    7.2520 C.3    68  ASN68       0.1195
     66  CG        45.9720   56.9930    6.3660 C.2    68  ASN68       0.2630
     67  OD1       46.0570   57.0390    5.1430 O.2    68  ASN68      -0.2716
     68  ND2       44.9120   56.4860    6.9900 N.am   68  ASN68      -0.0877
     69  N         47.7660   58.7900   10.5860 N.am   69  GLY69      -0.1940
     70  CA        48.7580   58.6850   11.6430 C.3    69  GLY69       0.2014
     71  C         49.8610   59.7190   11.6750 C.2    69  GLY69       0.2639
     72  O         50.1730   60.3510   10.6660 O.2    69  GLY69      -0.2714
     73  N         50.4600   59.8790   12.8500 N.am   70  GLY70      -0.1939
     74  CA        51.5350   60.8370   13.0160 C.3    70  GLY70       0.2014
     75  C         52.1650   60.7220   14.3890 C.2    70  GLY70       0.2639
     76  O         51.7690   59.8680   15.1810 O.2    70  GLY70      -0.2714
     77  N         53.1480   61.5750   14.6670 N.am   71  PHE71      -0.1959
     78  CA        53.8270   61.5740   15.9610 C.3    71  PHE71       0.1771
     79  C         53.5560   62.8760   16.7090 C.2    71  PHE71       0.2619
     80  O         53.4820   63.9450   16.0940 O.2    71  PHE71      -0.2715
     81  CB        55.3460   61.4600   15.7880 C.3    71  PHE71       0.0574
     82  CG        55.7920   60.2540   15.0190 C.ar   71  PHE71      -0.0200
     83  CD1       55.9460   60.3110   13.6360 C.ar   71  PHE71      -0.0042
     84  CD2       56.0740   59.0660   15.6770 C.ar   71  PHE71      -0.0042
     85  CE1       56.3760   59.1940   12.9190 C.ar   71  PHE71      -0.0003
     86  CE2       56.5030   57.9420   14.9720 C.ar   71  PHE71      -0.0003
     87  CZ        56.6540   58.0070   13.5890 C.ar   71  PHE71      -0.0000
     88  N         53.4300   62.7940   18.0320 N.am   72  MET72      -0.1977
     89  CA        53.2150   64.0000   18.8220 C.3    72  MET72       0.1605
     90  C         54.5200   64.8040   18.8680 C.2    72  MET72       0.2287
     91  O         54.4970   66.0310   18.8120 O.2    72  MET72      -0.2864
     92  CB        52.7690   63.6590   20.2490 C.3    72  MET72       0.0413
     93  CG        51.3810   63.0280   20.3590 C.3    72  MET72       0.0598
     94  SD        51.3380   61.2360   20.1000 S.3    72  MET72      -0.1393
     95  CE        51.9270   60.6740   21.7200 C.3    72  MET72       0.0692
     96  N         51.6450   57.3070   24.1150 N.3   138  GLY138     -0.1225
     97  CA        51.0850   56.3620   23.1760 C.3   138  GLY138      0.1811
     98  C         50.6890   55.1330   23.9660 C.2   138  GLY138      0.2280
     99  O         51.3590   54.7820   24.9390 O.2   138  GLY138     -0.2866
    100  N         52.6930   50.2840   21.1930 N.3   163  VAL163     -0.1231
    101  CA        51.6660   51.3260   21.1470 C.3   163  VAL163      0.1692
    102  C         51.2420   51.7270   19.7320 C.2   163  VAL163      0.2592
    103  O         52.0320   51.6480   18.7890 O.2   163  VAL163     -0.2718
    104  CB        52.1340   52.5890   21.9050 C.3   163  VAL163      0.0266
    105  CG1       52.4890   52.2230   23.3420 C.3   163  VAL163      0.0020
    106  CG2       53.3340   53.2120   21.2010 C.3   163  VAL163      0.0020
    107  N         49.9950   52.1790   19.5970 N.am  164  ASN164     -0.1960
    108  CA        49.4690   52.5790   18.2940 C.3   164  ASN164      0.1819
    109  C         48.4740   53.7280   18.3790 C.2   164  ASN164      0.2621
    110  O         47.9950   54.2030   17.3530 O.2   164  ASN164     -0.2715
    111  CB        48.7570   51.3970   17.6390 C.3   164  ASN164      0.1195
    112  CG        47.3880   51.1350   18.2520 C.2   164  ASN164      0.2630
    113  OD1       47.2310   51.1380   19.4730 O.2   164  ASN164     -0.2716
    114  ND2       46.3920   50.9040   17.4040 N.am  164  ASN164     -0.0877
    115  N         48.1610   54.1720   19.5900 N.am  165  HIS165     -0.1959
    116  CA        47.1650   55.2250   19.7750 C.3   165  HIS165      0.1787
    117  C         47.6740   56.3540   20.6740 C.2   165  HIS165      0.2620
    118  O         48.0570   56.1210   21.8200 O.2   165  HIS165     -0.2715
    119  CB        45.8970   54.5810   20.3610 C.3   165  HIS165      0.0785
    120  CG        44.7210   55.5000   20.4510 C.ar  165  HIS165      0.0821
    121  ND1       44.1350   56.0730   19.3420 N.ar  165  HIS165     -0.2267
    122  CD2       44.0160   55.9400   21.5190 C.ar  165  HIS165      0.1154
    123  CE1       43.1210   56.8280   19.7240 C.ar  165  HIS165      0.1986
    124  NE2       43.0270   56.7650   21.0410 N.ar  165  HIS165     -0.2212
    125  N         47.6780   57.5740   20.1410 N.am  166  GLY166     -0.1954
    126  CA        48.1540   58.7180   20.9010 C.3   166  GLY166      0.1869
    127  C         47.0880   59.3580   21.7670 C.2   166  GLY166      0.2309
    128  O         46.0120   59.7040   21.2790 O.2   166  GLY166     -0.2863
    129  N         56.4750   55.8900   25.2340 N.3   212  PHE212     -0.1241
    130  CA        56.9290   57.0890   24.5360 C.3   212  PHE212      0.1605
    131  C         56.2100   58.3630   24.9800 C.2   212  PHE212      0.2264
    132  O         55.3490   58.8900   24.2720 O.2   212  PHE212     -0.2867
    133  CB        56.7870   56.9000   23.0250 C.3   212  PHE212      0.0534
    134  CG        57.5320   55.7000   22.4950 C.ar  212  PHE212     -0.0203
    135  CD1       56.9000   54.4670   22.3780 C.ar  212  PHE212     -0.0042
    136  CD2       58.8770   55.7970   22.1460 C.ar  212  PHE212     -0.0042
    137  CE1       57.5960   53.3420   21.9200 C.ar  212  PHE212     -0.0003
    138  CE2       59.5800   54.6800   21.6900 C.ar  212  PHE212     -0.0003
    139  CZ        58.9370   53.4530   21.5780 C.ar  212  PHE212     -0.0000
@<TRIPOS>BOND
     1    67    66    2
     2    54    53    1
     3    53    52    1
     4    66    68   am
     5    66    65    1
     6    52    51    1
     7    51    50    1
     8    49    48    2
     9    50    47    1
    10    41    40    2
    11    65    62    1
    12    47    48    1
    13    47    46    1
    14    59    60    1
    15    59    56    1
    16    40    46   am
    17    40    39    1
    18    55    56    1
    19    61    62    1
    20    61    57   am
    21    62    63    1
    22    34    35    1
    23    56    57    1
    24    35    36    1
    25    57    58    2
    26    38    36   am
    27    38    39    1
    28    36    37    2
    29    39    42    1
    30    63    64    2
    31    63    69   am
    32    42    43    1
    33    69    70    1
    34    72    71    2
    35    10    11    1
    36    70    71    1
    37    43    45   am
    38    43    44    2
    39    71    73   am
    40    31    33   ar
    41    31    29   ar
    42    33    32   ar
    43    11    12    1
    44    13    12    2
    45    73    74    1
    46    85    87   ar
    47    85    83   ar
    48    74    75    1
    49    29    28   ar
    50    29    27   ar
    51    28    26   ar
    52     4     3    2
    53    32    30   ar
    54    87    86   ar
    55    83    82   ar
    56    26    25   ar
    57    27    30   ar
    58    27    25   ar
    59    75    77   am
    60    75    76    2
    61    77    78    1
    62     3     2    1
    63    86    84   ar
    64    82    84   ar
    65    82    81    1
    66    25    24    1
    67    81    78    1
    68     2     5    1
    69     2     1    1
    70     8     7    2
    71    78    79    1
    72    80    79    2
    73     5     6    1
    74    14    15    1
    75    24    21    1
    76     6     7    1
    77    79    88   am
    78     7     9   am
    79    20    21    1
    80    20    16   am
    81    19    18    1
    82   110   109    2
    83   114   112   am
    84    21    22    1
    85    22    23    2
    86   111   112    1
    87   111   108    1
    88    15    16    1
    89    15    18    1
    90    88    89    1
    91    16    17    2
    92   112   113    2
    93   108   109    1
    94   108   107    1
    95   109   115   am
    96   103   102    2
    97    91    90    2
    98    89    90    1
    99    89    92    1
   100   121   123   ar
   101   121   120   ar
   102   115   116    1
   103   107   102   am
   104   123   124   ar
   105   102   101    1
   106   116   119    1
   107   116   117    1
   108    94    93    1
   109    94    95    1
   110   125   117   am
   111   125   126    1
   112    92    93    1
   113   119   120    1
   114   120   122   ar
   115   117   118    2
   116   126   127    1
   117   124   122   ar
   118   101   100    1
   119   101   104    1
   120   106   104    1
   121   128   127    2
   122   139   138   ar
   123   139   137   ar
   124   138   136   ar
   125   104   105    1
   126   137   135   ar
   127   136   134   ar
   128   135   134   ar
   129   134   133    1
   130   133   130    1
   131    97    98    1
   132    97    96    1
   133    98    99    2
   134   132   131    2
   135   130   131    1
   136   130   129    1
