@<TRIPOS>MOLECULE
tmp/2fueA00.pdb
 118 107 0 0 0
SMALL
GASTEIGER

@<TRIPOS>ATOM
      1  N         17.4010   20.4630   87.6240 N.3    16  ARG16      -0.1245
      2  CA        17.0180   20.4870   89.0410 C.3    16  ARG16       0.1563
      3  C         15.5810   20.0450   89.3430 C.2    16  ARG16       0.2260
      4  O         15.0900   20.2640   90.4470 O.2    16  ARG16      -0.2867
      5  CB        17.2960   21.8650   89.6520 C.3    16  ARG16       0.0307
      6  CG        18.7360   22.3300   89.4050 C.3    16  ARG16       0.0489
      7  CD        19.1000   23.4740   90.3160 C.3    16  ARG16       0.2205
      8  NE        19.1610   23.0540   91.7170 N.pl3  16  ARG16      -0.0865
      9  CZ        20.2280   22.5260   92.3230 C.cat  16  ARG16       0.5346
     10  NH1       21.3620   22.3230   91.6630 N.pl3  16  ARG16       0.1354
     11  NH2       20.1450   22.1970   93.6090 N.pl3  16  ARG16       0.1354
     12  N         26.6880   16.6440   90.1000 N.3    41  GLY41      -0.1210
     13  CA        27.4030   17.4640   91.0670 C.3    41  GLY41       0.1956
     14  C         26.5830   17.7250   92.3270 C.2    41  GLY41       0.2613
     15  O         27.1380   18.0550   93.3780 O.2    41  GLY41      -0.2717
     16  N         25.2600   17.5800   92.2300 N.am   42  SER42      -0.1938
     17  CA        24.3740   17.7950   93.3850 C.3    42  SER42       0.2055
     18  C         24.5800   16.6970   94.4310 C.2    42  SER42       0.2643
     19  O         25.1300   15.6370   94.1130 O.2    42  SER42      -0.2714
     20  CB        22.9060   17.7820   92.9500 C.3    42  SER42       0.2130
     21  OG        22.5860   18.9040   92.1470 O.3    42  SER42      -0.2179
     22  N         24.1130   16.9440   95.6590 N.am   43  ASP43      -0.1971
     23  CA        24.2110   15.9400   96.7300 C.3    43  ASP43       0.1709
     24  C         23.2120   14.8080   96.5250 C.2    43  ASP43       0.2293
     25  O         22.2960   14.8940   95.7050 O.2    43  ASP43      -0.2864
     26  CB        24.1320   16.5410   98.1620 C.3    43  ASP43       0.1436
     27  CG        22.7890   17.2140   98.5020 C.2    43  ASP43       0.3671
     28  OD1       21.7250   16.8890   97.9300 O.co2  43  ASP43      -0.2456
     29  OD2       22.8000   18.0840   99.4040 O.co2  43  ASP43      -0.2456
     30  N         19.3520   15.5540   96.7890 N.3    46  LYS46      -0.1245
     31  CA        18.8360   16.2620   95.6200 C.3    46  LYS46       0.1561
     32  C         18.6090   15.3050   94.4520 C.2    46  LYS46       0.2260
     33  O         17.5510   15.2890   93.8330 O.2    46  LYS46      -0.2867
     34  CB        19.8330   17.3480   95.2170 C.3    46  LYS46       0.0271
     35  CG        19.3600   18.2840   94.1160 C.3    46  LYS46       0.0035
     36  CD        18.4080   19.3090   94.6650 C.3    46  LYS46       0.0206
     37  CE        18.7340   20.0500   96.0490 C.3    46  LYS46       0.1093
     38  NZ        20.1420   20.6350   96.3430 N.3    46  LYS46      -0.1314
     39  N         30.1910   26.1820  102.9730 N.3   117  GLU117     -0.1245
     40  CA        29.5720   24.8870  103.2520 C.3   117  GLU117      0.1567
     41  C         30.5510   23.7760  102.9080 C.2   117  GLU117      0.2260
     42  O         30.9720   23.6460  101.7610 O.2   117  GLU117     -0.2867
     43  CB        28.2630   24.6940  102.4710 C.3   117  GLU117      0.0388
     44  CG        27.4600   23.5120  102.9980 C.3   117  GLU117      0.1160
     45  CD        26.0910   23.3680  102.3590 C.2   117  GLU117      0.3649
     46  OE1       25.9960   23.3930  101.1210 O.co2 117  GLU117     -0.2457
     47  OE2       25.1020   23.1900  103.0980 O.co2 117  GLU117     -0.2457
     48  N         31.2510   20.3480  102.0550 N.3   119  ARG119     -0.1245
     49  CA        30.5440   19.1920  101.5050 C.3   119  ARG119      0.1563
     50  C         31.5110   18.0240  101.3560 C.2   119  ARG119      0.2260
     51  O         32.6560   18.0910  101.8000 O.2   119  ARG119     -0.2867
     52  CB        29.9020   19.5460  100.1650 C.3   119  ARG119      0.0307
     53  CG        28.9420   20.7110  100.2520 C.3   119  ARG119      0.0489
     54  CD        28.2890   21.0150   98.9280 C.3   119  ARG119      0.2205
     55  NE        27.4620   22.2130   99.0270 N.pl3 119  ARG119     -0.0865
     56  CZ        26.9560   22.8740   97.9920 C.cat 119  ARG119      0.5346
     57  NH1       27.1760   22.4660   96.7570 N.pl3 119  ARG119      0.1354
     58  NH2       26.2230   23.9580   98.1990 N.pl3 119  ARG119      0.1354
     59  N         31.6620   24.8290   99.1990 N.3   123  ASN123     -0.1240
     60  CA        30.7990   25.7830   98.5120 C.3   123  ASN123      0.1653
     61  C         30.9070   27.1270   99.2110 C.2   123  ASN123      0.2266
     62  O         30.8050   27.1800  100.4370 O.2   123  ASN123     -0.2867
     63  CB        29.3570   25.2860   98.4940 C.3   123  ASN123      0.1155
     64  CG        28.4310   26.2500   97.7960 C.2   123  ASN123      0.2627
     65  OD1       27.8070   27.0910   98.4470 O.2   123  ASN123     -0.2716
     66  ND2       28.3760   26.1790   96.4790 N.am  123  ASN123     -0.0877
     67  N         24.2110   30.6880  102.3680 N.3   129  ARG129     -0.1245
     68  CA        23.2440   29.6970  101.8680 C.3   129  ARG129      0.1563
     69  C         21.8690   29.7740  102.5230 C.2   129  ARG129      0.2260
     70  O         20.8660   29.3490  101.9330 O.2   129  ARG129     -0.2867
     71  CB        23.8160   28.2850  102.0810 C.3   129  ARG129      0.0307
     72  CG        22.9640   27.1290  101.5870 C.3   129  ARG129      0.0489
     73  CD        23.8350   25.9820  101.0490 C.3   129  ARG129      0.2205
     74  NE        24.6550   26.4850   99.9640 N.pl3 129  ARG129     -0.0865
     75  CZ        24.2150   26.7180   98.7260 C.cat 129  ARG129      0.5346
     76  NH1       22.9700   26.4330   98.3780 N.pl3 129  ARG129      0.1354
     77  NH2       25.0320   27.2320   97.8280 N.pl3 129  ARG129      0.1354
     78  N         17.8950   35.3610   97.5070 N.3   136  ARG136     -0.1245
     79  CA        18.6550   34.6400   96.5060 C.3   136  ARG136      0.1563
     80  C         18.5920   35.3270   95.1330 C.2   136  ARG136      0.2260
     81  O         19.6160   35.5290   94.4740 O.2   136  ARG136     -0.2867
     82  CB        18.0730   33.2370   96.4510 C.3   136  ARG136      0.0307
     83  CG        18.5020   32.3610   95.3510 C.3   136  ARG136      0.0489
     84  CD        18.2760   30.9280   95.8130 C.3   136  ARG136      0.2205
     85  NE        18.8940   29.9920   94.9020 N.pl3 136  ARG136     -0.0865
     86  CZ        19.8580   29.1340   95.2010 C.cat 136  ARG136      0.5346
     87  NH1       20.3540   29.0130   96.4350 N.pl3 136  ARG136      0.1354
     88  NH2       20.2960   28.3550   94.2350 N.pl3 136  ARG136      0.1354
     89  N         28.6760   27.1870   89.1040 N.3   170  GLY170     -0.1210
     90  CA        27.5040   26.4650   88.6260 C.3   170  GLY170      0.1956
     91  C         26.2200   26.9870   89.2330 C.2   170  GLY170      0.2612
     92  O         25.1780   27.0360   88.5700 O.2   170  GLY170     -0.2717
     93  N         26.3000   27.3890   90.4940 N.am  171  GLY171     -0.1956
     94  CA        25.1350   27.8450   91.2230 C.3   171  GLY171      0.1869
     95  C         24.7930   29.2830   90.9220 C.2   171  GLY171      0.2309
     96  O         25.3190   29.8760   89.9870 O.2   171  GLY171     -0.2863
     97  N         24.0630   31.6030   93.9010 N.3   172  ILE172     -0.1231
     98  CA        24.5050   32.4210   95.0300 C.3   172  ILE172      0.1692
     99  C         25.8940   32.0290   95.5230 C.2   172  ILE172      0.2592
    100  O         26.3580   32.5320   96.5490 O.2   172  ILE172     -0.2718
    101  CB        23.4900   32.3670   96.2140 C.3   172  ILE172      0.0266
    102  CG1       23.4420   30.9790   96.8620 C.3   172  ILE172      0.0019
    103  CG2       22.1080   32.8020   95.7400 C.3   172  ILE172      0.0020
    104  CD1       22.6740   30.9260   98.1890 C.3   172  ILE172      0.0001
    105  N         26.5650   31.1470   94.7830 N.am  173  SER173     -0.1952
    106  CA        27.7950   30.5340   95.2660 C.3   173  SER173      0.1924
    107  C         28.7020   30.0920   94.1420 C.2   173  SER173      0.2314
    108  O         28.3110   30.0780   92.9810 O.2   173  SER173     -0.2863
    109  CB        27.4500   29.2920   96.1130 C.3   173  SER173      0.2116
    110  OG        26.8970   28.2670   95.2850 O.3   173  SER173     -0.2180
    111  N         31.7600   26.7200   93.6660 N.3   175  ASP175     -0.1239
    112  CA        32.3640   25.5620   94.3260 C.3   175  ASP175      0.1674
    113  C         33.8650   25.5090   94.1120 C.2   175  ASP175      0.2266
    114  O         34.3510   25.8560   93.0460 O.2   175  ASP175     -0.2867
    115  CB        31.7290   24.2760   93.8300 C.3   175  ASP175      0.1410
    116  CG        30.2230   24.2450   94.0810 C.2   175  ASP175      0.3668
    117  OD1       29.8410   23.8070   95.1930 O.co2 175  ASP175     -0.2456
    118  OD2       29.4380   24.6630   93.2030 O.co2 175  ASP175     -0.2456
@<TRIPOS>BOND
     1     1     2    1
     2    92    91    2
     3    90    89    1
     4    90    91    1
     5     2     3    1
     6     2     5    1
     7    91    93   am
     8     3     4    2
     9     6     5    1
    10     6     7    1
    11    96    95    2
    12    12    13    1
    13     7     8    1
    14    93    94    1
    15    95    94    1
    16    13    14    1
    17    10     9    1
    18     8     9    2
    19    21    20    1
    20    16    14   am
    21    16    17    1
    22     9    11    1
    23    14    15    2
    24    20    17    1
    25   108   107    2
    26   114   113    2
    27   118   116   ar
    28    17    18    1
    29   111   112    1
    30   115   116    1
    31   115   112    1
    32    33    32    2
    33    97    98    1
    34   116   117   ar
    35   113   112    1
    36    19    18    2
    37    35    36    1
    38    35    34    1
    39   107   106    1
    40    88    86    1
    41    18    22   am
    42    32    31    1
    43    81    80    2
    44    36    37    1
    45   105   106    1
    46   105    99   am
    47    85    86    2
    48    85    84    1
    49    98    99    1
    50    98   101    1
    51    80    79    1
    52    86    87    1
    53    34    31    1
    54   106   109    1
    55   110   109    1
    56    83    84    1
    57    83    82    1
    58    99   100    2
    59    31    30    1
    60    22    23    1
    61    25    24    2
    62   103   101    1
    63    37    38    1
    64   101   102    1
    65    82    79    1
    66    66    64   am
    67    79    78    1
    68    24    23    1
    69    23    26    1
    70    57    56    1
    71   102   104    1
    72    64    65    2
    73    64    63    1
    74    77    75    1
    75    28    27   ar
    76    56    58    1
    77    56    55    2
    78    26    27    1
    79    76    75    1
    80    63    60    1
    81    27    29   ar
    82    60    59    1
    83    60    61    1
    84    75    74    2
    85    54    55    1
    86    54    53    1
    87    61    62    2
    88    74    73    1
    89    52    53    1
    90    52    49    1
    91    73    72    1
    92    46    45   ar
    93    50    49    1
    94    50    51    2
    95    49    48    1
    96    72    71    1
    97    42    41    2
    98    68    71    1
    99    68    67    1
   100    68    69    1
   101    70    69    2
   102    45    44    1
   103    45    47   ar
   104    43    44    1
   105    43    40    1
   106    41    40    1
   107    39    40    1
