@<TRIPOS>MOLECULE
tmp/2fumB00.pdb
 192 181 0 0 0
SMALL
GASTEIGER

@<TRIPOS>ATOM
      1  N         55.6360  -18.4230  -53.3230 N.3    13  GLU13      -0.1231
      2  CA        55.1380  -17.8320  -54.5500 C.3    13  GLU13       0.1699
      3  C         55.8100  -16.5320  -55.0080 C.2    13  GLU13       0.2592
      4  O         56.2250  -15.7270  -54.1720 O.2    13  GLU13      -0.2718
      5  CB        53.7190  -17.4710  -54.1980 C.3    13  GLU13       0.0402
      6  CG        52.6840  -17.7910  -55.2120 C.3    13  GLU13       0.1161
      7  CD        51.3200  -17.2380  -54.7830 C.2    13  GLU13       0.3649
      8  OE1       51.3000  -16.1690  -54.0940 O.co2  13  GLU13      -0.2457
      9  OE2       50.2810  -17.8720  -55.1320 O.co2  13  GLU13      -0.2457
     10  N         55.8730  -16.3160  -56.3260 N.am   14  ILE14      -0.1966
     11  CA        56.4240  -15.0750  -56.8840 C.3    14  ILE14       0.1727
     12  C         55.3740  -13.9750  -56.8400 C.2    14  ILE14       0.2616
     13  O         54.2920  -14.1170  -57.4160 O.2    14  ILE14      -0.2715
     14  CB        56.9040  -15.2680  -58.3320 C.3    14  ILE14       0.0290
     15  CG1       58.0660  -16.2580  -58.3430 C.3    14  ILE14       0.0022
     16  CG2       57.2940  -13.9180  -58.9680 C.3    14  ILE14       0.0023
     17  CD1       58.6920  -16.5140  -59.7110 C.3    14  ILE14       0.0001
     18  N         55.6860  -12.8830  -56.1520 N.am   15  LEU15      -0.1963
     19  CA        54.7340  -11.7940  -56.0320 C.3    15  LEU15       0.1728
     20  C         54.7360  -10.8730  -57.2350 C.2    15  LEU15       0.2617
     21  O         53.6750  -10.4600  -57.6880 O.2    15  LEU15      -0.2715
     22  CB        54.9610  -11.0100  -54.7570 C.3    15  LEU15       0.0311
     23  CG        54.3690  -11.6320  -53.4930 C.3    15  LEU15       0.0022
     24  CD1       54.3790  -10.5710  -52.4080 C.3    15  LEU15       0.0001
     25  CD2       52.9400  -12.1840  -53.6850 C.3    15  LEU15       0.0001
     26  N         55.9250  -10.5700  -57.7520 N.am   16  GLY16      -0.1940
     27  CA        56.1140   -9.7340  -58.9470 C.3    16  GLY16       0.2014
     28  C         57.6100   -9.5960  -59.1520 C.2    16  GLY16       0.2639
     29  O         58.3800  -10.2500  -58.4530 O.2    16  GLY16      -0.2714
     30  N         58.0430   -8.7610  -60.0960 N.am   17  PHE17      -0.1959
     31  CA        59.4850   -8.4910  -60.2700 C.3    17  PHE17       0.1771
     32  C         59.7930   -7.0110  -60.1280 C.2    17  PHE17       0.2620
     33  O         59.1880   -6.1950  -60.8450 O.2    17  PHE17      -0.2715
     34  CB        59.9560   -8.9220  -61.6420 C.3    17  PHE17       0.0574
     35  CG        59.6300  -10.3360  -61.9800 C.ar   17  PHE17      -0.0200
     36  CD1       58.3260  -10.7100  -62.3050 C.ar   17  PHE17      -0.0042
     37  CD2       60.6330  -11.3010  -62.0240 C.ar   17  PHE17      -0.0042
     38  CE1       58.0190  -12.0430  -62.6600 C.ar   17  PHE17      -0.0003
     39  CE2       60.3370  -12.6340  -62.3660 C.ar   17  PHE17      -0.0003
     40  CZ        59.0310  -13.0030  -62.6850 C.ar   17  PHE17      -0.0000
     41  N         60.7290   -6.6720  -59.2320 N.am   18  GLY18      -0.1940
     42  CA        61.2540   -5.2950  -59.0820 C.3    18  GLY18       0.2014
     43  C         62.5110   -5.0090  -59.9290 C.2    18  GLY18       0.2639
     44  O         63.6640   -5.0780  -59.4250 O.2    18  GLY18      -0.2714
     45  N         62.2890   -4.6520  -61.2010 N.am   19  GLY19      -0.1954
     46  CA        63.3390   -4.7080  -62.2240 C.3    19  GLY19       0.1869
     47  C         63.9000   -6.1160  -62.1730 C.2    19  GLY19       0.2309
     48  O         63.3470   -6.9620  -61.4560 O.2    19  GLY19      -0.2863
     49  N         60.5070  -10.9900  -56.7200 N.3    23  VAL23      -0.1245
     50  CA        59.9620  -10.7930  -55.3620 C.3    23  VAL23       0.1561
     51  C         59.0750  -11.9690  -54.9690 C.2    23  VAL23       0.2260
     52  O         58.1340  -12.3090  -55.7010 O.2    23  VAL23      -0.2867
     53  CB        59.1550   -9.4770  -55.1960 C.3    23  VAL23       0.0252
     54  CG1       58.7080   -9.3010  -53.7520 C.3    23  VAL23       0.0019
     55  CG2       59.9880   -8.3080  -55.5840 C.3    23  VAL23       0.0019
     56  N         57.5800  -10.4040  -47.6580 N.3    36  ALA36      -0.1245
     57  CA        57.9520  -10.4330  -49.0810 C.3    36  ALA36       0.1562
     58  C         59.4450  -10.2150  -49.2080 C.2    36  ALA36       0.2260
     59  O         60.0080   -9.3540  -48.5000 O.2    36  ALA36      -0.2867
     60  CB        57.1950   -9.3840  -49.8700 C.3    36  ALA36       0.0290
     61  N         63.0780   -9.9150  -51.7100 N.3    38  LYS38      -0.1245
     62  CA        63.6510   -9.5360  -53.0140 C.3    38  LYS38       0.1561
     63  C         64.9980  -10.2440  -53.1950 C.2    38  LYS38       0.2260
     64  O         65.8380  -10.2240  -52.3030 O.2    38  LYS38      -0.2867
     65  CB        63.8040   -8.0070  -53.0990 C.3    38  LYS38       0.0271
     66  CG        63.7340   -7.3910  -54.5150 C.3    38  LYS38       0.0035
     67  CD        63.4840   -5.8520  -54.4400 C.3    38  LYS38       0.0206
     68  CE        62.6980   -5.2790  -55.6630 C.3    38  LYS38       0.1093
     69  NZ        63.4970   -5.0010  -56.9280 N.3    38  LYS38      -0.1314
     70  N         56.2790    0.8270  -48.2220 N.3    70  VAL70      -0.1245
     71  CA        56.6080   -0.5720  -47.8140 C.3    70  VAL70       0.1561
     72  C         57.7960   -0.6120  -46.8480 C.2    70  VAL70       0.2260
     73  O         58.7900    0.0820  -47.0490 O.2    70  VAL70      -0.2867
     74  CB        56.8850   -1.5160  -49.0280 C.3    70  VAL70       0.0252
     75  CG1       57.5450   -2.8280  -48.5590 C.3    70  VAL70       0.0019
     76  CG2       55.5960   -1.8100  -49.8170 C.3    70  VAL70       0.0019
     77  N         61.0540   -7.5350  -46.7970 N.3    90  MET90      -0.1230
     78  CA        60.1650   -6.3880  -46.6670 C.3    90  MET90       0.1702
     79  C         58.7670   -6.6650  -46.1610 C.2    90  MET90       0.2592
     80  O         58.2580   -7.7790  -46.2770 O.2    90  MET90      -0.2718
     81  CB        60.0580   -5.7130  -47.9970 C.3    90  MET90       0.0401
     82  CG        61.3760   -5.3670  -48.5700 C.3    90  MET90       0.0596
     83  SD        60.7950   -5.1480  -50.2000 S.3    90  MET90      -0.1393
     84  CE        61.8520   -3.8150  -50.8200 C.3    90  MET90       0.0692
     85  N         58.1670   -5.6280  -45.5950 N.am   91  GLU91      -0.1966
     86  CA        56.7890   -5.6380  -45.2220 C.3    91  GLU91       0.1733
     87  C         56.0710   -6.3440  -46.3140 C.2    91  GLU91       0.2616
     88  O         56.3210   -6.0670  -47.4720 O.2    91  GLU91      -0.2715
     89  CB        56.3230   -4.2170  -45.2630 C.3    91  GLU91       0.0429
     90  CG        55.3770   -3.8680  -44.2060 C.3    91  GLU91       0.1163
     91  CD        54.4220   -2.8230  -44.6540 C.2    91  GLU91       0.3649
     92  OE1       53.2180   -3.1770  -44.6690 O.co2  91  GLU91      -0.2457
     93  OE2       54.8750   -1.6870  -45.0000 O.co2  91  GLU91      -0.2457
     94  N         55.1950   -7.2690  -45.9740 N.am   92  TYR92      -0.1960
     95  CA        54.3930   -7.8960  -47.0090 C.3    92  TYR92       0.1771
     96  C         53.1040   -7.1140  -47.1900 C.2    92  TYR92       0.2619
     97  O         52.5800   -6.5330  -46.2390 O.2    92  TYR92      -0.2715
     98  CB        54.1350   -9.3540  -46.6730 C.3    92  TYR92       0.0574
     99  CG        53.0520  -10.0170  -47.4830 C.ar   92  TYR92      -0.0198
    100  CD1       52.0440  -10.7140  -46.8530 C.ar   92  TYR92      -0.0009
    101  CD2       53.0360   -9.9690  -48.8710 C.ar   92  TYR92      -0.0009
    102  CE1       51.0260  -11.3570  -47.5660 C.ar   92  TYR92       0.0417
    103  CE2       52.0050  -10.6090  -49.6050 C.ar   92  TYR92       0.0417
    104  CZ        51.0010  -11.3070  -48.9320 C.ar   92  TYR92       0.1957
    105  OH        49.9720  -11.9540  -49.5880 O.3    92  TYR92      -0.2866
    106  N         52.6240   -7.0410  -48.4190 N.am   93  VAL93      -0.1977
    107  CA        51.3460   -6.4040  -48.6610 C.3    93  VAL93       0.1596
    108  C         50.4230   -7.3560  -49.3970 C.2    93  VAL93       0.2287
    109  O         50.5540   -7.6350  -50.6080 O.2    93  VAL93      -0.2864
    110  CB        51.4420   -5.0160  -49.3810 C.3    93  VAL93       0.0276
    111  CG1       50.0910   -4.2750  -49.3370 C.3    93  VAL93       0.0022
    112  CG2       52.5230   -4.1300  -48.7740 C.3    93  VAL93       0.0022
    113  N         47.4770   -7.5460  -51.0930 N.3    95  GLY95      -0.1210
    114  CA        46.5200   -6.7400  -51.8150 C.3    95  GLY95       0.1956
    115  C         46.7950   -6.8010  -53.2950 C.2    95  GLY95       0.2612
    116  O         47.3490   -7.7840  -53.7850 O.2    95  GLY95      -0.2717
    117  N         46.3990   -5.7400  -54.0030 N.am   96  VAL96      -0.1965
    118  CA        46.6150   -5.5950  -55.4490 C.3    96  VAL96       0.1727
    119  C         47.0880   -4.1980  -55.8190 C.2    96  VAL96       0.2616
    120  O         47.1160   -3.2860  -54.9730 O.2    96  VAL96      -0.2715
    121  CB        45.3700   -5.9260  -56.2560 C.3    96  VAL96       0.0290
    122  CG1       45.1390   -7.4250  -56.2490 C.3    96  VAL96       0.0023
    123  CG2       44.1800   -5.1950  -55.7100 C.3    96  VAL96       0.0023
    124  N         47.4750   -4.0480  -57.0820 N.am   97  THR97      -0.1951
    125  CA        48.0740   -2.8150  -57.5600 C.3    97  THR97       0.1897
    126  C         47.0360   -1.9900  -58.1960 C.2    97  THR97       0.2313
    127  O         46.1820   -2.5050  -58.9300 O.2    97  THR97      -0.2863
    128  CB        48.9880   -3.0450  -58.7400 C.3    97  THR97       0.1794
    129  OG1       49.5610   -4.3290  -58.6100 O.3    97  THR97      -0.2208
    130  CG2       50.0630   -2.0380  -58.7770 C.3    97  THR97       0.0378
    131  N         46.2960   -3.3150  -61.3770 N.3   100  ASP100     -0.1239
    132  CA        45.3080   -4.3820  -61.5000 C.3   100  ASP100      0.1674
    133  C         43.9260   -3.8340  -61.2760 C.2   100  ASP100      0.2266
    134  O         43.0200   -4.1200  -62.0570 O.2   100  ASP100     -0.2867
    135  CB        45.5740   -5.4850  -60.5120 C.3   100  ASP100      0.1410
    136  CG        47.0260   -5.6720  -60.2690 C.2   100  ASP100      0.3668
    137  OD1       47.8420   -5.0040  -60.9650 O.co2 100  ASP100     -0.2456
    138  OD2       47.3440   -6.4780  -59.3630 O.co2 100  ASP100     -0.2456
    139  N         59.9290    6.5530  -60.1430 N.3   136  ASP136     -0.1239
    140  CA        59.3630    5.3600  -60.7990 C.3   136  ASP136      0.1674
    141  C         57.9160    5.1170  -60.4780 C.2   136  ASP136      0.2266
    142  O         57.4260    3.9930  -60.4270 O.2   136  ASP136     -0.2867
    143  CB        60.2230    4.1210  -60.4800 C.3   136  ASP136      0.1410
    144  CG        60.0720    3.0090  -61.5160 C.2   136  ASP136      0.3668
    145  OD1       60.2260    1.8200  -61.1350 O.co2 136  ASP136     -0.2456
    146  OD2       59.7900    3.3140  -62.7060 O.co2 136  ASP136     -0.2456
    147  N         54.2690    4.5670  -60.7040 N.3   138  LYS138     -0.1245
    148  CA        53.2950    4.0910  -61.7060 C.3   138  LYS138      0.1561
    149  C         52.3410    3.0970  -61.0840 C.2   138  LYS138      0.2260
    150  O         52.7080    2.4110  -60.1330 O.2   138  LYS138     -0.2867
    151  CB        53.9840    3.4500  -62.9190 C.3   138  LYS138      0.0271
    152  CG        55.2180    2.6300  -62.6270 C.3   138  LYS138      0.0035
    153  CD        55.3700    1.5880  -63.7210 C.3   138  LYS138      0.0206
    154  CE        56.6810    0.7890  -63.6090 C.3   138  LYS138      0.1093
    155  NZ        57.9450    1.6030  -63.7310 N.3   138  LYS138     -0.1314
    156  N         51.4600    0.2010  -61.1800 N.3   140  ALA140     -0.1231
    157  CA        51.9640   -1.0580  -60.6490 C.3   140  ALA140      0.1694
    158  C         52.9440   -0.8820  -59.5120 C.2   140  ALA140      0.2592
    159  O         53.4600   -1.8600  -59.0090 O.2   140  ALA140     -0.2718
    160  CB        52.5680   -1.9270  -61.7330 C.3   140  ALA140      0.0304
    161  N         53.2060    0.3460  -59.0960 N.am  141  ASN141     -0.1974
    162  CA        54.0810    0.5540  -57.9540 C.3   141  ASN141      0.1688
    163  C         53.3440    1.0260  -56.7010 C.2   141  ASN141      0.2292
    164  O         53.9330    1.1890  -55.6370 O.2   141  ASN141     -0.2864
    165  CB        55.2470    1.4660  -58.3320 C.3   141  ASN141      0.1181
    166  CG        56.4220    0.6930  -58.9640 C.2   141  ASN141      0.2629
    167  OD1       56.5520   -0.5380  -58.8090 O.2   141  ASN141     -0.2716
    168  ND2       57.2870    1.4190  -59.6720 N.am  141  ASN141     -0.0877
    169  N         50.0060    0.0890  -54.2150 N.3   143  MET143     -0.1245
    170  CA        49.1380   -1.0180  -53.8520 C.3   143  MET143      0.1570
    171  C         48.0520   -0.6290  -52.9090 C.2   143  MET143      0.2261
    172  O         48.1870    0.3400  -52.1420 O.2   143  MET143     -0.2867
    173  CB        49.9240   -2.1170  -53.1830 C.3   143  MET143      0.0387
    174  CG        50.7780   -2.8560  -54.1270 C.3   143  MET143      0.0595
    175  SD        51.4400   -4.3790  -53.4460 S.3   143  MET143     -0.1393
    176  CE        49.9110   -5.2430  -53.1110 C.3   143  MET143      0.0692
    177  N         55.5340    1.2080  -53.4150 N.3   153  MET153     -0.1230
    178  CA        56.7960    0.5190  -53.3220 C.3   153  MET153      0.1702
    179  C         57.7140    0.5940  -54.5010 C.2   153  MET153      0.2592
    180  O         57.5140    1.3900  -55.4000 O.2   153  MET153     -0.2718
    181  CB        56.6100   -0.9280  -52.9380 C.3   153  MET153      0.0401
    182  CG        56.7200   -1.8940  -54.0920 C.3   153  MET153      0.0596
    183  SD        55.0990   -2.1710  -54.7740 S.3   153  MET153     -0.1393
    184  CE        54.1240   -2.2840  -53.2420 C.3   153  MET153      0.0692
    185  N         58.7460   -0.2530  -54.4520 N.am  154  ASP154     -0.1974
    186  CA        59.7770   -0.3970  -55.4890 C.3   154  ASP154      0.1709
    187  C         60.6700    0.8340  -55.5600 C.2   154  ASP154      0.2293
    188  O         60.8310    1.4660  -56.6110 O.2   154  ASP154     -0.2864
    189  CB        59.1740   -0.7580  -56.8660 C.3   154  ASP154      0.1436
    190  CG        60.0960   -1.6660  -57.7230 C.2   154  ASP154      0.3671
    191  OD1       60.9480   -2.4090  -57.1570 O.co2 154  ASP154     -0.2456
    192  OD2       59.9340   -1.6540  -58.9810 O.co2 154  ASP154     -0.2456
@<TRIPOS>BOND
     1   155   154    1
     2   153   154    1
     3   153   152    1
     4   151   152    1
     5   151   148    1
     6   146   144   ar
     7    40    38   ar
     8    40    39   ar
     9    38    36   ar
    10    39    37   ar
    11    36    35   ar
    12    46    47    1
    13    46    45    1
    14    47    48    2
    15   134   133    2
    16    37    35   ar
    17    35    34    1
    18   160   157    1
    19   148   149    1
    20   148   147    1
    21    34    31    1
    22   144   145   ar
    23   144   143    1
    24   132   131    1
    25   132   133    1
    26   132   135    1
    27    45    43   am
    28   156   157    1
    29   149   150    2
    30   137   136   ar
    31    33    32    2
    32   140   143    1
    33   140   141    1
    34   140   139    1
    35   157   158    1
    36   135   136    1
    37   141   142    2
    38    31    32    1
    39    31    30    1
    40   136   138   ar
    41    32    41   am
    42    30    28   am
    43    43    44    2
    44    43    42    1
    45    17    15    1
    46   168   166   am
    47   158   161   am
    48   158   159    2
    49    41    42    1
    50    28    27    1
    51    28    29    2
    52   161   162    1
    53   192   190   ar
    54    16    14    1
    55   166   167    2
    56   166   165    1
    57    27    26    1
    58   127   126    2
    59   130   128    1
    60   128   129    1
    61   128   125    1
    62    15    14    1
    63    14    11    1
    64   165   162    1
    65   126   125    1
    66   162   163    1
    67    26    20   am
    68   190   191   ar
    69   190   189    1
    70    21    20    2
    71   125   124    1
    72    13    12    2
    73    20    19    1
    74   124   119   am
    75    69    68    1
    76    11    12    1
    77    11    10    1
    78   189   186    1
    79    12    18   am
    80    49    50    1
    81   163   164    2
    82   188   187    2
    83    10     3   am
    84   121   122    1
    85   121   123    1
    86   121   118    1
    87    18    19    1
    88    19    22    1
    89   119   118    1
    90   119   120    2
    91    52    51    2
    92    68    67    1
    93    55    53    1
    94   187   186    1
    95   186   185    1
    96   118   117    1
    97   180   179    2
    98    50    53    1
    99    50    51    1
   100     6     7    1
   101     6     5    1
   102    53    54    1
   103     9     7   ar
   104     3     2    1
   105     3     4    2
   106     7     8   ar
   107   183   182    1
   108   183   184    1
   109    22    23    1
   110     2     5    1
   111     2     1    1
   112    66    67    1
   113    66    65    1
   114   179   185   am
   115   179   178    1
   116   169   170    1
   117   174   175    1
   118   174   173    1
   119   182   181    1
   120   117   115   am
   121   170   173    1
   122   170   171    1
   123   116   115    2
   124    25    23    1
   125    23    24    1
   126   175   176    1
   127   177   178    1
   128   178   181    1
   129   115   114    1
   130    63    62    1
   131    63    64    2
   132    65    62    1
   133    62    61    1
   134   171   172    2
   135   114   113    1
   136    84    83    1
   137   109   108    2
   138    83    82    1
   139    60    57    1
   140    76    74    1
   141   103   104   ar
   142   103   101   ar
   143   105   104    1
   144   108   107    1
   145   110   111    1
   146   110   112    1
   147   110   107    1
   148    58    57    1
   149    58    59    2
   150    57    56    1
   151    74    75    1
   152    74    71    1
   153   104   102   ar
   154   101    99   ar
   155   107   106    1
   156    82    81    1
   157   106    96   am
   158    70    71    1
   159    81    78    1
   160    71    72    1
   161   102   100   ar
   162    99   100   ar
   163    99    98    1
   164    88    87    2
   165    96    95    1
   166    96    97    2
   167    73    72    2
   168    95    98    1
   169    95    94    1
   170    77    78    1
   171    78    79    1
   172    87    94   am
   173    87    86    1
   174    80    79    2
   175    79    85   am
   176    85    86    1
   177    89    86    1
   178    89    90    1
   179    93    91   ar
   180    92    91   ar
   181    91    90    1
