@<TRIPOS>MOLECULE
tmp/2fupA00.pdb
 116 108 0 0 0
SMALL
GASTEIGER

@<TRIPOS>ATOM
      1  N         41.3060   59.4190   33.2600 N.3    10  PHE10      -0.1241
      2  CA        41.3650   59.2880   31.8220 C.3    10  PHE10       0.1605
      3  C         42.6720   58.6450   31.4000 C.2    10  PHE10       0.2264
      4  O         42.6560   57.7930   30.5100 O.2    10  PHE10      -0.2867
      5  CB        41.2380   60.6450   31.1230 C.3    10  PHE10       0.0534
      6  CG        39.8300   61.1110   30.9560 C.ar   10  PHE10      -0.0203
      7  CD1       38.9020   60.4110   30.2100 C.ar   10  PHE10      -0.0042
      8  CD2       39.3950   62.2950   31.5290 C.ar   10  PHE10      -0.0042
      9  CE1       37.6090   60.8400   30.0670 C.ar   10  PHE10      -0.0003
     10  CE2       38.0460   62.7330   31.3840 C.ar   10  PHE10      -0.0003
     11  CZ        37.1510   61.9940   30.6310 C.ar   10  PHE10      -0.0000
     12  N         34.6740   58.6400   36.9640 N.3    59  ARG59      -0.1245
     13  CA        34.5530   59.8450   36.1350 C.3    59  ARG59       0.1563
     14  C         33.1230   60.3960   36.1620 C.2    59  ARG59       0.2260
     15  O         32.8800   61.6240   36.2400 O.2    59  ARG59      -0.2867
     16  CB        34.9530   59.5830   34.6740 C.3    59  ARG59       0.0307
     17  CG        36.4420   59.2890   34.6330 C.3    59  ARG59       0.0489
     18  CD        36.9580   59.5320   33.2290 C.3    59  ARG59       0.2205
     19  NE        36.2020   58.6240   32.3900 N.pl3  59  ARG59      -0.0865
     20  CZ        36.5040   57.3420   32.2750 C.cat  59  ARG59       0.5346
     21  NH1       37.6150   56.8810   32.7970 N.pl3  59  ARG59       0.1354
     22  NH2       35.7330   56.5370   31.6070 N.pl3  59  ARG59       0.1354
     23  N         31.8270   64.1930   37.4830 N.3    63  LEU63      -0.1245
     24  CA        31.0270   65.1250   36.7030 C.3    63  LEU63       0.1561
     25  C         29.6620   65.3920   37.3420 C.2    63  LEU63       0.2260
     26  O         29.2030   66.5510   37.3780 O.2    63  LEU63      -0.2867
     27  CB        30.8680   64.6470   35.2450 C.3    63  LEU63       0.0270
     28  CG        32.1630   64.4680   34.4410 C.3    63  LEU63       0.0019
     29  CD1       31.8630   63.8730   33.0610 C.3    63  LEU63       0.0001
     30  CD2       32.8550   65.7810   34.3420 C.3    63  LEU63       0.0001
     31  N         26.6820   64.1040   31.7560 N.3    70  LEU70      -0.1231
     32  CA        27.6430   63.0030   31.6540 C.3    70  LEU70       0.1693
     33  C         27.8690   62.7300   30.1820 C.2    70  LEU70       0.2592
     34  O         27.4180   61.7330   29.6310 O.2    70  LEU70      -0.2718
     35  CB        27.1120   61.7310   32.3640 C.3    70  LEU70       0.0284
     36  CG        26.8880   61.8910   33.8730 C.3    70  LEU70       0.0019
     37  CD1       26.6760   60.5480   34.6020 C.3    70  LEU70       0.0001
     38  CD2       27.9850   62.6190   34.5250 C.3    70  LEU70       0.0001
     39  N         28.4730   63.7210   29.5410 N.am   71  ASP71      -0.1960
     40  CA        28.6840   63.6780   28.1000 C.3    71  ASP71       0.1840
     41  C         29.7620   64.7330   27.7790 C.2    71  ASP71       0.2621
     42  O         30.2930   65.3820   28.6690 O.2    71  ASP71      -0.2715
     43  CB        27.3640   63.9350   27.3410 C.3    71  ASP71       0.1450
     44  CG        26.7040   65.2290   27.6860 C.2    71  ASP71       0.3671
     45  OD1       27.3290   66.1480   28.2010 O.co2  71  ASP71      -0.2456
     46  OD2       25.4390   65.3280   27.4840 O.co2  71  ASP71      -0.2456
     47  N         30.0930   64.8830   26.4930 N.am   72  ARG72      -0.1977
     48  CA        31.1980   65.7470   26.1210 C.3    72  ARG72       0.1597
     49  C         30.8920   67.2290   26.4310 C.2    72  ARG72       0.2287
     50  O         31.7770   67.9740   26.8210 O.2    72  ARG72      -0.2864
     51  CB        31.5760   65.5410   24.6550 C.3    72  ARG72       0.0334
     52  CG        32.9390   66.0660   24.4000 C.3    72  ARG72       0.0492
     53  CD        33.3110   66.0980   22.9000 C.3    72  ARG72       0.2205
     54  NE        34.7080   66.5400   22.6730 N.pl3  72  ARG72      -0.0865
     55  CZ        35.1350   67.7890   22.6530 C.cat  72  ARG72       0.5346
     56  NH1       34.2890   68.8090   22.7150 N.pl3  72  ARG72       0.1354
     57  NH2       36.4610   68.0100   22.5300 N.pl3  72  ARG72       0.1354
     58  N         31.6540   67.5320   30.1450 N.3    75  LEU75      -0.1245
     59  CA        33.1200   67.5620   30.3340 C.3    75  LEU75       0.1561
     60  C         33.6560   68.9140   29.9150 C.2    75  LEU75       0.2260
     61  O         34.5560   69.4380   30.5870 O.2    75  LEU75      -0.2867
     62  CB        33.7840   66.4500   29.5180 C.3    75  LEU75       0.0270
     63  CG        35.2690   66.2820   29.6460 C.3    75  LEU75       0.0019
     64  CD1       35.6890   66.0340   31.1370 C.3    75  LEU75       0.0001
     65  CD2       35.7770   65.1700   28.7750 C.3    75  LEU75       0.0001
     66  N         39.5240   62.5440   26.8370 N.3    92  GLY92      -0.1210
     67  CA        38.1900   62.0090   26.7790 C.3    92  GLY92       0.1956
     68  C         37.8770   61.5380   25.3750 C.2    92  GLY92       0.2611
     69  O         37.2460   60.5100   25.1590 O.2    92  GLY92      -0.2717
     70  N         38.2510   62.3130   24.3450 N.am   93  ASP93      -0.1973
     71  CA        37.9320   61.9600   22.9650 C.3    93  ASP93       0.1709
     72  C         38.7380   60.7270   22.5040 C.2    93  ASP93       0.2293
     73  O         38.2490   59.9020   21.7530 O.2    93  ASP93      -0.2864
     74  CB        38.2440   63.1450   22.0300 C.3    93  ASP93       0.1436
     75  CG        37.3530   64.3400   22.2600 C.2    93  ASP93       0.3671
     76  OD1       36.2030   64.1660   22.7860 O.co2  93  ASP93      -0.2456
     77  OD2       37.7500   65.4700   21.8620 O.co2  93  ASP93      -0.2456
     78  N         39.8410   58.3240   24.5390 N.3    95  LEU95      -0.1231
     79  CA        39.1800   57.1980   25.1890 C.3    95  LEU95       0.1693
     80  C         37.9320   56.7860   24.4860 C.2    95  LEU95       0.2592
     81  O         37.6920   55.5990   24.2830 O.2    95  LEU95      -0.2718
     82  CB        38.8990   57.5270   26.6590 C.3    95  LEU95       0.0284
     83  CG        38.2940   56.3820   27.4760 C.3    95  LEU95       0.0019
     84  CD1       39.2120   55.1440   27.5380 C.3    95  LEU95       0.0001
     85  CD2       37.8820   56.8160   28.8750 C.3    95  LEU95       0.0001
     86  N         37.0840   57.7420   24.0630 N.am   96  GLY96      -0.1957
     87  CA        35.8870   57.3510   23.3530 C.3    96  GLY96       0.1869
     88  C         36.2020   56.5880   22.0840 C.2    96  GLY96       0.2309
     89  O         35.5650   55.5730   21.7660 O.2    96  GLY96      -0.2863
     90  N         37.4280   52.9960   23.1200 N.3    99  LEU99      -0.1245
     91  CA        36.3410   52.1110   23.5970 C.3    99  LEU99       0.1561
     92  C         35.5100   51.6180   22.4310 C.2    99  LEU99       0.2260
     93  O         35.0610   50.4550   22.3640 O.2    99  LEU99      -0.2867
     94  CB        35.4830   52.7820   24.6570 C.3    99  LEU99       0.0270
     95  CG        36.1690   53.1070   25.9560 C.3    99  LEU99       0.0019
     96  CD1       35.2630   53.9170   26.9330 C.3    99  LEU99       0.0001
     97  CD2       36.7080   51.8260   26.6260 C.3    99  LEU99       0.0001
     98  N         29.9670   51.1360   29.3730 N.3   125  LEU125     -0.1231
     99  CA        30.9180   52.2630   29.2660 C.3   125  LEU125      0.1693
    100  C         30.6200   53.3010   28.1780 C.2   125  LEU125      0.2591
    101  O         31.0280   54.4610   28.2940 O.2   125  LEU125     -0.2718
    102  CB        32.3470   51.7390   29.0230 C.3   125  LEU125      0.0284
    103  CG        33.0210   50.8960   30.1050 C.3   125  LEU125      0.0019
    104  CD1       34.4510   50.6490   29.7110 C.3   125  LEU125      0.0001
    105  CD2       32.9470   51.5750   31.4640 C.3   125  LEU125      0.0001
    106  N         29.9660   52.8670   27.1030 N.am  126  ARG126     -0.1980
    107  CA        29.6010   53.7550   25.9960 C.3   126  ARG126      0.1597
    108  C         28.2040   54.2810   26.2620 C.2   126  ARG126      0.2287
    109  O         27.6620   55.0190   25.4470 O.2   126  ARG126     -0.2864
    110  CB        29.6670   53.0050   24.6470 C.3   126  ARG126      0.0334
    111  CG        28.9040   53.7310   23.5230 C.3   126  ARG126      0.0492
    112  CD        29.5750   53.8070   22.1620 C.3   126  ARG126      0.2205
    113  NE        30.9220   54.3450   22.1700 N.pl3 126  ARG126     -0.0865
    114  CZ        31.4640   55.1000   21.1970 C.cat 126  ARG126      0.5346
    115  NH1       30.7820   55.4920   20.1210 N.pl3 126  ARG126      0.1354
    116  NH2       32.7270   55.4870   21.3240 N.pl3 126  ARG126      0.1354
@<TRIPOS>BOND
     1   115   114    1
     2   114   116    1
     3   114   113    2
     4    73    72    2
     5    89    88    2
     6    77    75   ar
     7    74    75    1
     8    74    71    1
     9    88    87    1
    10   112   113    1
    11   112   111    1
    12    75    76   ar
    13    93    92    2
    14    92    91    1
    15    72    71    1
    16    57    55    1
    17    55    54    2
    18    55    56    1
    19    54    53    1
    20    53    52    1
    21    71    70    1
    22    90    91    1
    23    87    86    1
    24   111   110    1
    25    91    94    1
    26    86    80   am
    27    81    80    2
    28    70    68   am
    29    52    51    1
    30    80    79    1
    31    78    79    1
    32   110   107    1
    33    51    48    1
    34    94    95    1
    35    69    68    2
    36    79    82    1
    37    68    67    1
    38   109   108    2
    39    95    97    1
    40    95    96    1
    41   107   108    1
    42   107   106    1
    43    48    49    1
    44    48    47    1
    45    49    50    2
    46    47    41   am
    47    82    83    1
    48    67    66    1
    49   106   100   am
    50    43    44    1
    51    43    40    1
    52    83    84    1
    53    83    85    1
    54    46    44   ar
    55    44    45   ar
    56    41    40    1
    57    41    42    2
    58    40    39    1
    59   100   101    2
    60   100    99    1
    61    65    63    1
    62   102    99    1
    63   102   103    1
    64    99    98    1
    65    62    63    1
    66    62    59    1
    67    39    33   am
    68    34    33    2
    69    63    64    1
    70   104   103    1
    71    60    59    1
    72    60    61    2
    73     9     7   ar
    74     9    11   ar
    75   103   105    1
    76    58    59    1
    77    33    32    1
    78     7     6   ar
    79     4     3    2
    80    11    10   ar
    81     6     5    1
    82     6     8   ar
    83     5     2    1
    84    10     8   ar
    85     3     2    1
    86    22    20    1
    87    32    31    1
    88    32    35    1
    89     2     1    1
    90    20    19    2
    91    20    21    1
    92    35    36    1
    93    19    18    1
    94    29    28    1
    95    18    17    1
    96    36    38    1
    97    36    37    1
    98    30    28    1
    99    28    27    1
   100    17    16    1
   101    16    13    1
   102    27    24    1
   103    13    14    1
   104    13    12    1
   105    14    15    2
   106    24    25    1
   107    24    23    1
   108    25    26    2
