@<TRIPOS>MOLECULE
tmp/2futB00.pdb
 177 170 0 0 0
SMALL
GASTEIGER

@<TRIPOS>ATOM
      1  N         -0.8580   95.7980   37.0100 N.3   110  ASP110     -0.1239
      2  CA        -0.5970   95.6770   38.4510 C.3   110  ASP110      0.1674
      3  C         -0.4570   94.2140   38.8910 C.2   110  ASP110      0.2266
      4  O         -1.1340   93.7460   39.8160 O.2   110  ASP110     -0.2867
      5  CB        -1.6700   96.4270   39.2580 C.3   110  ASP110      0.1410
      6  CG        -1.7030   97.9250   38.9480 C.2   110  ASP110      0.3668
      7  OD1       -0.6460   98.5880   39.0470 O.co2 110  ASP110     -0.2456
      8  OD2       -2.7910   98.4440   38.6140 O.co2 110  ASP110     -0.2456
      9  N          0.1350   92.4290   42.4630 N.3   113  ARG113     -0.1245
     10  CA        -0.9770   92.1560   43.3740 C.3   113  ARG113      0.1563
     11  C         -1.4090   90.6930   43.3180 C.2   113  ARG113      0.2260
     12  O         -1.8270   90.1250   44.3330 O.2   113  ARG113     -0.2867
     13  CB        -2.1610   93.0750   43.0750 C.3   113  ARG113      0.0307
     14  CG        -1.8430   94.5560   43.2240 C.3   113  ARG113      0.0489
     15  CD        -3.0030   95.4210   42.7740 C.3   113  ARG113      0.2205
     16  NE        -2.6920   96.8480   42.8460 N.pl3 113  ARG113     -0.0865
     17  CZ        -3.5460   97.8150   42.5180 C.cat 113  ARG113      0.5346
     18  NH1       -4.7720   97.5160   42.0960 N.pl3 113  ARG113      0.1354
     19  NH2       -3.1770   99.0860   42.6110 N.pl3 113  ARG113      0.1354
     20  N         10.7960  102.1330   44.2650 N.3   159  ASP159     -0.1225
     21  CA         9.5420  102.8820   44.4110 C.3   159  ASP159      0.1805
     22  C          9.5310  103.8490   45.6100 C.2   159  ASP159      0.2597
     23  O         10.5850  104.1730   46.1650 O.2   159  ASP159     -0.2718
     24  CB         8.3290  101.9370   44.4310 C.3   159  ASP159      0.1424
     25  CG         7.1410  102.5010   43.6680 C.2   159  ASP159      0.3668
     26  OD1        7.1660  102.4340   42.4130 O.co2 159  ASP159     -0.2456
     27  OD2        6.1910  103.0050   44.3190 O.co2 159  ASP159     -0.2456
     28  N          8.3330  104.3030   45.9890 N.am  160  LYS160     -0.1979
     29  CA         8.1430  105.3340   47.0210 C.3   160  LYS160      0.1596
     30  C          7.4460  104.7680   48.2580 C.2   160  LYS160      0.2287
     31  O          6.7460  103.7530   48.1730 O.2   160  LYS160     -0.2864
     32  CB         7.3200  106.5080   46.4680 C.3   160  LYS160      0.0298
     33  CG         7.7270  107.0030   45.0830 C.3   160  LYS160      0.0038
     34  CD         9.0650  107.7270   45.1080 C.3   160  LYS160      0.0206
     35  CE         9.5860  107.9550   43.7020 C.3   160  LYS160      0.1093
     36  NZ        10.9320  108.5820   43.7190 N.3   160  LYS160     -0.1314
     37  N          3.7530  107.3490   48.7120 N.3   163  VAL163     -0.1231
     38  CA         2.8350  107.1320   47.5850 C.3   163  VAL163      0.1692
     39  C          3.2500  105.9430   46.7000 C.2   163  VAL163      0.2593
     40  O          4.2170  105.2400   46.9970 O.2   163  VAL163     -0.2718
     41  CB         2.6890  108.4020   46.7070 C.3   163  VAL163      0.0266
     42  CG1        1.9920  109.5190   47.4680 C.3   163  VAL163      0.0020
     43  CG2        4.0420  108.8520   46.1860 C.3   163  VAL163      0.0020
     44  N          2.5060  105.7290   45.6170 N.am  164  GLY164     -0.1942
     45  CA         2.8670  104.7370   44.6050 C.3   164  GLY164      0.2014
     46  C          2.4140  103.3190   44.8930 C.2   164  GLY164      0.2638
     47  O          1.5780  103.0840   45.7740 O.2   164  GLY164     -0.2714
     48  N          2.9780  102.3780   44.1350 N.am  165  HIS165     -0.1973
     49  CA         2.6580  100.9530   44.2620 C.3   165  HIS165      0.1656
     50  C          3.1950  100.3300   45.5490 C.2   165  HIS165      0.2291
     51  O          2.6260   99.3670   46.0610 O.2   165  HIS165     -0.2864
     52  CB         3.1920  100.1650   43.0570 C.3   165  HIS165      0.0771
     53  CG         2.5690  100.5470   41.7510 C.ar  165  HIS165      0.0820
     54  ND1        3.3140  100.8070   40.6200 N.ar  165  HIS165     -0.2267
     55  CD2        1.2730  100.7070   41.3900 C.ar  165  HIS165      0.1154
     56  CE1        2.5060  101.1150   39.6210 C.ar  165  HIS165      0.1986
     57  NE2        1.2610  101.0650   40.0630 N.ar  165  HIS165     -0.2212
     58  N          0.9700  100.2170   48.6650 N.3   168  GLU168     -0.1245
     59  CA        -0.2160   99.3930   48.5020 C.3   168  GLU168      0.1567
     60  C         -0.0140   98.0160   49.1300 C.2   168  GLU168      0.2260
     61  O          0.4930   97.9260   50.2510 O.2   168  GLU168     -0.2867
     62  CB        -0.6260   99.3300   47.0270 C.3   168  GLU168      0.0388
     63  CG        -1.4770  100.5310   46.6210 C.3   168  GLU168      0.1160
     64  CD        -1.3050  100.9600   45.1740 C.2   168  GLU168      0.3649
     65  OE1       -0.6230  100.2630   44.3920 O.co2 168  GLU168     -0.2457
     66  OE2       -1.8660  102.0140   44.8170 O.co2 168  GLU168     -0.2457
     67  N         -8.3750  106.5690   45.2180 N.3   216  TYR216     -0.1241
     68  CA        -7.2340  105.7930   45.6870 C.3   216  TYR216      0.1605
     69  C         -7.1360  105.7310   47.2070 C.2   216  TYR216      0.2264
     70  O         -6.3610  104.9440   47.7560 O.2   216  TYR216     -0.2867
     71  CB        -5.9390  106.2730   45.0320 C.3   216  TYR216      0.0534
     72  CG        -5.8120  105.7610   43.6100 C.ar  216  TYR216     -0.0201
     73  CD1       -5.9980  106.6100   42.5190 C.ar  216  TYR216     -0.0009
     74  CD2       -5.5450  104.4150   43.3580 C.ar  216  TYR216     -0.0009
     75  CE1       -5.8930  106.1380   41.2180 C.ar  216  TYR216      0.0417
     76  CE2       -5.4400  103.9320   42.0650 C.ar  216  TYR216      0.0417
     77  CZ        -5.6140  104.7950   40.9990 C.ar  216  TYR216      0.1957
     78  OH        -5.5100  104.3120   39.7140 O.3   216  TYR216     -0.2866
     79  N         -4.9740  102.7060   49.2170 N.3   220  ARG220     -0.1245
     80  CA        -3.9010  103.2650   50.0370 C.3   220  ARG220      0.1563
     81  C         -4.1680  103.0910   51.5330 C.2   220  ARG220      0.2260
     82  O         -3.3000  102.6280   52.2760 O.2   220  ARG220     -0.2867
     83  CB        -3.6740  104.7430   49.6970 C.3   220  ARG220      0.0307
     84  CG        -3.2200  105.0040   48.2600 C.3   220  ARG220      0.0489
     85  CD        -1.9420  104.2440   47.9040 C.3   220  ARG220      0.2205
     86  NE        -1.6640  104.3050   46.4720 N.pl3 220  ARG220     -0.0865
     87  CZ        -1.0140  105.2960   45.8670 C.cat 220  ARG220      0.5346
     88  NH1       -0.5600  106.3340   46.5600 N.pl3 220  ARG220      0.1354
     89  NH2       -0.8180  105.2510   44.5580 N.pl3 220  ARG220      0.1354
     90  N          1.8400  111.9690   43.1790 N.3   360  ASN360     -0.1225
     91  CA         1.1320  110.7840   42.6850 C.3   360  ASN360      0.1785
     92  C         -0.2910  111.1680   42.2540 C.2   360  ASN360      0.2597
     93  O         -0.4520  111.9360   41.3110 O.2   360  ASN360     -0.2718
     94  CB         1.1700  109.6430   43.7160 C.3   360  ASN360      0.1169
     95  CG         0.7880  108.2820   43.1290 C.2   360  ASN360      0.2627
     96  OD1        0.7440  107.2820   43.8470 O.2   360  ASN360     -0.2716
     97  ND2        0.5110  108.2390   41.8300 N.am  360  ASN360     -0.0877
     98  N         -1.3100  110.6910   42.9600 N.am  361  HIS361     -0.1975
     99  CA        -2.6990  110.9860   42.5830 C.3   361  HIS361      0.1656
    100  C         -3.2610  112.3180   43.1070 C.2   361  HIS361      0.2291
    101  O         -4.4400  112.6310   42.8870 O.2   361  HIS361     -0.2864
    102  CB        -3.6120  109.8260   42.9730 C.3   361  HIS361      0.0771
    103  CG        -3.1760  108.5110   42.4130 C.ar  361  HIS361      0.0820
    104  ND1       -3.2080  108.2330   41.0640 N.ar  361  HIS361     -0.2267
    105  CD2       -2.6860  107.4040   43.0150 C.ar  361  HIS361      0.1154
    106  CE1       -2.7610  107.0070   40.8610 C.ar  361  HIS361      0.1986
    107  NE2       -2.4420  106.4800   42.0280 N.ar  361  HIS361     -0.2212
    108  N         -9.9520  111.1310   35.2560 N.3   384  TYR384     -0.1227
    109  CA        -8.7310  110.3540   35.3570 C.3   384  TYR384      0.1736
    110  C         -8.5650  109.4960   34.1050 C.2   384  TYR384      0.2596
    111  O         -7.4880  109.4620   33.5030 O.2   384  TYR384     -0.2718
    112  CB        -8.7710  109.5110   36.6380 C.3   384  TYR384      0.0548
    113  CG        -7.5310  108.6980   36.9500 C.ar  384  TYR384     -0.0200
    114  CD1       -6.2500  109.2360   36.8040 C.ar  384  TYR384     -0.0009
    115  CD2       -7.6470  107.3960   37.4330 C.ar  384  TYR384     -0.0009
    116  CE1       -5.1150  108.4800   37.1050 C.ar  384  TYR384      0.0417
    117  CE2       -6.5220  106.6340   37.7370 C.ar  384  TYR384      0.0417
    118  CZ        -5.2630  107.1820   37.5730 C.ar  384  TYR384      0.1957
    119  OH        -4.1590  106.4250   37.8770 O.3   384  TYR384     -0.2866
    120  N         -9.6460  108.8300   33.7020 N.am  385  THR385     -0.1953
    121  CA        -9.6320  107.9800   32.5110 C.3   385  THR385      0.1897
    122  C        -10.6360  108.4420   31.4530 C.2   385  THR385      0.2313
    123  O        -11.6960  108.9980   31.7710 O.2   385  THR385     -0.2863
    124  CB        -9.9140  106.4970   32.8500 C.3   385  THR385      0.1794
    125  OG1      -11.2600  106.3590   33.3190 O.3   385  THR385     -0.2208
    126  CG2       -8.9410  105.9740   33.9130 C.3   385  THR385      0.0378
    127  N         -4.7370  106.6850   30.3660 N.3   390  GLY390     -0.1210
    128  CA        -4.7320  106.5430   31.8220 C.3   390  GLY390      0.1956
    129  C         -3.9100  107.6070   32.5320 C.2   390  GLY390      0.2612
    130  O         -3.7630  108.7250   32.0390 O.2   390  GLY390     -0.2717
    131  N         -3.3800  107.2490   33.7000 N.am  391  TYR391     -0.1962
    132  CA        -2.4310  108.0810   34.4460 C.3   391  TYR391      0.1771
    133  C         -1.4430  108.8050   33.5170 C.2   391  TYR391      0.2619
    134  O         -1.1670  109.9940   33.7040 O.2   391  TYR391     -0.2715
    135  CB        -1.6750  107.2030   35.4470 C.3   391  TYR391      0.0574
    136  CG        -0.8110  107.9350   36.4490 C.ar  391  TYR391     -0.0198
    137  CD1       -1.3350  108.3600   37.6730 C.ar  391  TYR391     -0.0009
    138  CD2        0.5420  108.1730   36.1940 C.ar  391  TYR391     -0.0009
    139  CE1       -0.5400  109.0190   38.6080 C.ar  391  TYR391      0.0417
    140  CE2        1.3450  108.8300   37.1230 C.ar  391  TYR391      0.0417
    141  CZ         0.7960  109.2500   38.3250 C.ar  391  TYR391      0.1957
    142  OH         1.5830  109.9020   39.2430 O.3   391  TYR391     -0.2866
    143  N         -0.9350  108.0770   32.5200 N.am  392  ASN392     -0.1972
    144  CA         0.0400  108.5790   31.5470 C.3   392  ASN392      0.1688
    145  C         -0.4640  109.6930   30.6480 C.2   392  ASN392      0.2292
    146  O          0.3280  110.5010   30.1560 O.2   392  ASN392     -0.2864
    147  CB         0.4950  107.4400   30.6270 C.3   392  ASN392      0.1181
    148  CG         1.6070  106.6070   31.2200 C.2   392  ASN392      0.2629
    149  OD1        2.0230  105.6090   30.6240 O.2   392  ASN392     -0.2716
    150  ND2        2.0990  107.0040   32.3960 N.am  392  ASN392     -0.0877
    151  N          4.8910  109.3300   35.8300 N.3   424  GLY424     -0.1210
    152  CA         4.4350  108.0600   35.2540 C.3   424  GLY424      0.1956
    153  C          5.4920  106.9690   35.2390 C.2   424  GLY424      0.2612
    154  O          6.6110  107.1630   35.7190 O.2   424  GLY424     -0.2717
    155  N          5.1300  105.8120   34.6950 N.am  425  GLY425     -0.1942
    156  CA         6.0830  104.7190   34.5160 C.3   425  GLY425      0.2014
    157  C          6.3020  104.4100   33.0470 C.2   425  GLY425      0.2639
    158  O          7.0250  103.4710   32.7010 O.2   425  GLY425     -0.2714
    159  N          5.6670  105.2070   32.1890 N.am  426  SER426     -0.1949
    160  CA         5.7160  105.0350   30.7400 C.3   426  SER426      0.1924
    161  C          5.3090  106.3400   30.0600 C.2   426  SER426      0.2314
    162  O          4.9110  107.2900   30.7380 O.2   426  SER426     -0.2863
    163  CB         4.7790  103.9040   30.3120 C.3   426  SER426      0.2116
    164  OG         4.9220  103.6180   28.9340 O.3   426  SER426     -0.2180
    165  N          7.9240  114.2350   40.2310 N.3   446  ILE446     -0.1231
    166  CA         7.8710  112.9460   40.9080 C.3   446  ILE446      0.1692
    167  C          7.9610  113.0580   42.4350 C.2   446  ILE446      0.2591
    168  O          8.7820  113.8110   42.9730 O.2   446  ILE446     -0.2718
    169  CB         8.9040  111.9240   40.3200 C.3   446  ILE446      0.0266
    170  CG1        8.5090  110.4810   40.6690 C.3   446  ILE446      0.0019
    171  CG2       10.3410  112.2500   40.7470 C.3   446  ILE446      0.0020
    172  CD1        7.2250  110.0040   40.0060 C.3   446  ILE446      0.0001
    173  N          7.0920  112.3080   43.1100 N.am  447  ALA447     -0.1980
    174  CA         7.0220  112.2690   44.5690 C.3   447  ALA447      0.1597
    175  C          8.3460  111.8270   45.2020 C.2   447  ALA447      0.2287
    176  O          9.0980  111.0680   44.5880 O.2   447  ALA447     -0.2864
    177  CB         5.8930  111.3540   45.0050 C.3   447  ALA447      0.0319
@<TRIPOS>BOND
     1   164   163    1
     2   161   162    2
     3   161   160    1
     4   146   145    2
     5   163   160    1
     6   127   128    1
     7   149   148    2
     8   147   148    1
     9   147   144    1
    10   145   144    1
    11   160   159    1
    12   148   150   am
    13   122   123    2
    14   122   121    1
    15   144   143    1
    16   128   129    1
    17   130   129    2
    18   159   157   am
    19   121   124    1
    20   121   120    1
    21   143   133   am
    22   129   131   am
    23   158   157    2
    24   124   125    1
    25   124   126    1
    26   157   156    1
    27   111   110    2
    28   133   134    2
    29   133   132    1
    30   131   132    1
    31   120   110   am
    32   110   109    1
    33   132   135    1
    34   156   155    1
    35   155   153   am
    36   153   152    1
    37   153   154    2
    38   152   151    1
    39   108   109    1
    40   109   112    1
    41   135   136    1
    42   138   136   ar
    43   138   140   ar
    44   136   137   ar
    45   112   113    1
    46   114   113   ar
    47   114   116   ar
    48   113   115   ar
    49     1     2    1
    50   116   118   ar
    51   140   141   ar
    52   115   117   ar
    53   118   117   ar
    54   118   119    1
    55   137   139   ar
    56   141   139   ar
    57   141   142    1
    58     2     3    1
    59     2     5    1
    60     8     6   ar
    61     3     4    2
    62     6     7   ar
    63     6     5    1
    64    56    57   ar
    65    56    54   ar
    66    78    77    1
    67   172   170    1
    68    57    55   ar
    69   165   166    1
    70   169   170    1
    71   169   171    1
    72   169   166    1
    73    54    53   ar
    74   106   104   ar
    75   106   107   ar
    76   166   167    1
    77    77    75   ar
    78    77    76   ar
    79   104   103   ar
    80    75    73   ar
    81    93    92    2
    82    55    53   ar
    83    53    52    1
    84    97    95   am
    85   107   105   ar
    86    76    74   ar
    87    18    17    1
    88    92    91    1
    89    92    98   am
    90   103   102    1
    91   103   105   ar
    92    26    25   ar
    93   167   168    2
    94   167   173   am
    95     9    10    1
    96    17    19    1
    97    17    16    2
    98    73    72   ar
    99    99    98    1
   100    99   102    1
   101    99   100    1
   102    91    90    1
   103    91    94    1
   104    15    16    1
   105    15    14    1
   106   101   100    2
   107    52    49    1
   108    13    14    1
   109    13    10    1
   110   173   174    1
   111    95    94    1
   112    95    96    2
   113    11    10    1
   114    11    12    2
   115    74    72   ar
   116    72    71    1
   117    25    27   ar
   118    25    24    1
   119    35    36    1
   120    35    34    1
   121    48    49    1
   122    48    46   am
   123    49    50    1
   124    20    21    1
   125    65    64   ar
   126    21    24    1
   127    21    22    1
   128    89    87    1
   129   174   177    1
   130   174   175    1
   131   176   175    2
   132    45    46    1
   133    45    44    1
   134    66    64   ar
   135    46    47    2
   136    71    68    1
   137    33    34    1
   138    33    32    1
   139    64    63    1
   140    67    68    1
   141    50    51    2
   142    22    28   am
   143    22    23    2
   144    44    39   am
   145    68    69    1
   146    87    86    2
   147    87    88    1
   148    28    29    1
   149    43    41    1
   150    32    29    1
   151    86    85    1
   152    63    62    1
   153    39    40    2
   154    39    38    1
   155    41    42    1
   156    41    38    1
   157    29    30    1
   158    62    59    1
   159    69    70    2
   160    38    37    1
   161    85    84    1
   162    31    30    2
   163    84    83    1
   164    59    58    1
   165    59    60    1
   166    60    61    2
   167    79    80    1
   168    83    80    1
   169    80    81    1
   170    81    82    2
