@<TRIPOS>MOLECULE
tmp/2fv0A00.pdb
 217 216 0 0 0
SMALL
GASTEIGER

@<TRIPOS>ATOM
      1  N        -39.6520 -133.1770  190.5830 N.3    26  HIS26      -0.1226
      2  CA       -39.1480 -132.9790  189.2260 C.3    26  HIS26       0.1752
      3  C        -39.0470 -134.3230  188.4940 C.2    26  HIS26       0.2595
      4  O        -39.8580 -134.6360  187.6300 O.2    26  HIS26      -0.2718
      5  CB       -37.7630 -132.3250  189.2690 C.3    26  HIS26       0.0759
      6  CG       -37.2400 -131.9320  187.9250 C.ar   26  HIS26       0.0818
      7  ND1      -35.9050 -132.0000  187.5940 N.ar   26  HIS26      -0.2268
      8  CD2      -37.8710 -131.4350  186.8370 C.ar   26  HIS26       0.1154
      9  CE1      -35.7360 -131.5620  186.3600 C.ar   26  HIS26       0.1986
     10  NE2      -36.9140 -131.2110  185.8800 N.ar   26  HIS26      -0.2212
     11  N        -38.0280 -135.1010  188.8440 N.am   27  VAL27      -0.1980
     12  CA       -37.8050 -136.4230  188.2510 C.3    27  VAL27       0.1595
     13  C        -37.1660 -137.2960  189.3280 C.2    27  VAL27       0.2287
     14  O        -36.6610 -136.7830  190.3290 O.2    27  VAL27      -0.2864
     15  CB       -36.7930 -136.3920  187.0450 C.3    27  VAL27       0.0276
     16  CG1      -37.3030 -135.5090  185.9150 C.3    27  VAL27       0.0022
     17  CG2      -35.4250 -135.9080  187.5220 C.3    27  VAL27       0.0022
     18  N        -34.2400 -140.2930  190.2360 N.3    29  ASP29      -0.1239
     19  CA       -32.8840 -140.5160  189.7590 C.3    29  ASP29       0.1674
     20  C        -32.3460 -141.8360  190.2970 C.2    29  ASP29       0.2266
     21  O        -31.5280 -141.8610  191.2180 O.2    29  ASP29      -0.2867
     22  CB       -31.9840 -139.3600  190.1990 C.3    29  ASP29       0.1410
     23  CG       -30.5890 -139.4460  189.6160 C.2    29  ASP29       0.3668
     24  OD1      -30.3350 -140.3220  188.7640 O.co2  29  ASP29      -0.2456
     25  OD2      -29.7430 -138.6180  190.0110 O.co2  29  ASP29      -0.2456
     26  N        -36.9760 -136.2430  193.1430 N.3    35  VAL35      -0.1245
     27  CA       -35.9530 -135.3040  193.5710 C.3    35  VAL35       0.1561
     28  C        -36.7290 -133.9870  193.5810 C.2    35  VAL35       0.2260
     29  O        -37.3730 -133.6330  192.5910 O.2    35  VAL35      -0.2867
     30  CB       -34.7800 -135.2600  192.5700 C.3    35  VAL35       0.0252
     31  CG1      -33.8180 -134.1370  192.9330 C.3    35  VAL35       0.0019
     32  CG2      -34.0510 -136.6020  192.5780 C.3    35  VAL35       0.0019
     33  N        -37.2540 -124.8710  188.6660 N.3    41  ASP41      -0.1225
     34  CA       -37.0830 -125.5640  187.3900 C.3    41  ASP41       0.1805
     35  C        -38.1980 -125.1750  186.4170 C.2    41  ASP41       0.2597
     36  O        -38.9990 -124.2860  186.7050 O.2    41  ASP41      -0.2718
     37  CB       -37.0950 -127.0810  187.6120 C.3    41  ASP41       0.1424
     38  CG       -36.0460 -127.7980  186.7830 C.2    41  ASP41       0.3668
     39  OD1      -36.0380 -127.6120  185.5490 O.co2  41  ASP41      -0.2456
     40  OD2      -35.2290 -128.5440  187.3650 O.co2  41  ASP41      -0.2456
     41  N        -38.2530 -125.8470  185.2740 N.am   42  TRP42      -0.1976
     42  CA       -39.2780 -125.5550  184.2800 C.3    42  TRP42       0.1640
     43  C        -40.5150 -126.4260  184.4510 C.2    42  TRP42       0.2290
     44  O        -41.5170 -126.2250  183.7660 O.2    42  TRP42      -0.2864
     45  CB       -38.7390 -125.7670  182.8590 C.3    42  TRP42       0.0576
     46  CG       -38.4120 -127.2130  182.5090 C.ar   42  TRP42       0.0006
     47  CD1      -37.2220 -127.8570  182.7080 C.ar   42  TRP42       0.0946
     48  CD2      -39.2980 -128.1850  181.9240 C.ar   42  TRP42       0.0152
     49  NE1      -37.3100 -129.1630  182.2870 N.ar   42  TRP42      -0.2442
     50  CE2      -38.5730 -129.3930  181.8040 C.ar   42  TRP42       0.0810
     51  CE3      -40.6320 -128.1520  181.4940 C.ar   42  TRP42       0.0012
     52  CZ2      -39.1380 -130.5610  181.2710 C.ar   42  TRP42       0.0191
     53  CZ3      -41.1990 -129.3170  180.9630 C.ar   42  TRP42       0.0001
     54  CH2      -40.4470 -130.5050  180.8580 C.ar   42  TRP42       0.0015
     55  N        -37.0860 -117.6760  180.5340 N.3    86  HIS86      -0.1226
     56  CA       -37.2790 -118.7850  179.6180 C.3    86  HIS86       0.1752
     57  C        -38.7010 -118.8320  179.0700 C.2    86  HIS86       0.2596
     58  O        -39.5940 -118.1430  179.5690 O.2    86  HIS86      -0.2718
     59  CB       -36.9510 -120.0970  180.3400 C.3    86  HIS86       0.0759
     60  CG       -37.8400 -120.3850  181.5130 C.ar   86  HIS86       0.0818
     61  ND1      -37.4230 -121.1250  182.6000 N.ar   86  HIS86      -0.2268
     62  CD2      -39.1340 -120.0600  181.7550 C.ar   86  HIS86       0.1154
     63  CE1      -38.4210 -121.2420  183.4590 C.ar   86  HIS86       0.1986
     64  NE2      -39.4700 -120.6060  182.9700 N.ar   86  HIS86      -0.2212
     65  N        -38.8930 -119.6590  178.0460 N.am   87  HIS87      -0.1961
     66  CA       -40.1870 -119.8390  177.4040 C.3    87  HIS87       0.1787
     67  C        -41.1390 -120.6460  178.2820 C.2    87  HIS87       0.2620
     68  O        -42.3560 -120.5340  178.1440 O.2    87  HIS87      -0.2715
     69  CB       -40.0150 -120.5740  176.0740 C.3    87  HIS87       0.0785
     70  CG       -39.3330 -121.9040  176.2040 C.ar   87  HIS87       0.0821
     71  ND1      -39.5070 -122.9230  175.2930 N.ar   87  HIS87      -0.2267
     72  CD2      -38.4670 -122.3760  177.1330 C.ar   87  HIS87       0.1154
     73  CE1      -38.7790 -123.9660  175.6540 C.ar   87  HIS87       0.1986
     74  NE2      -38.1380 -123.6590  176.7680 N.ar   87  HIS87      -0.2212
     75  N        -40.5810 -121.4580  179.1800 N.am   88  ASN88      -0.1972
     76  CA       -41.3710 -122.3100  180.0710 C.3    88  ASN88       0.1688
     77  C        -42.3310 -121.5750  180.9890 C.2    88  ASN88       0.2292
     78  O        -42.9280 -122.1830  181.8850 O.2    88  ASN88      -0.2864
     79  CB       -40.4500 -123.1590  180.9370 C.3    88  ASN88       0.1181
     80  CG       -39.4860 -123.9730  180.1230 C.2    88  ASN88       0.2629
     81  OD1      -39.8910 -124.7170  179.2260 O.2    88  ASN88      -0.2716
     82  ND2      -38.1970 -123.8420  180.4270 N.am   88  ASN88      -0.0877
     83  N        -45.5580 -123.3710  180.8330 N.3    91  PHE91      -0.1241
     84  CA       -45.6010 -124.6470  181.5520 C.3    91  PHE91       0.1605
     85  C        -45.7600 -124.3860  183.0430 C.2    91  PHE91       0.2264
     86  O        -46.5170 -125.0670  183.7370 O.2    91  PHE91      -0.2867
     87  CB       -44.3050 -125.4370  181.3490 C.3    91  PHE91       0.0534
     88  CG       -44.2680 -126.2510  180.0860 C.ar   91  PHE91      -0.0203
     89  CD1      -45.2810 -127.1590  179.7980 C.ar   91  PHE91      -0.0042
     90  CD2      -43.1890 -126.1490  179.2140 C.ar   91  PHE91      -0.0042
     91  CE1      -45.2160 -127.9570  178.6590 C.ar   91  PHE91      -0.0003
     92  CE2      -43.1180 -126.9460  178.0710 C.ar   91  PHE91      -0.0003
     93  CZ       -44.1320 -127.8490  177.7980 C.ar   91  PHE91      -0.0000
     94  N        -34.8160 -120.5660  175.2910 N.3   134  TRP134     -0.1241
     95  CA       -33.8980 -120.5450  176.4290 C.3   134  TRP134      0.1605
     96  C        -32.7950 -119.4970  176.2900 C.2   134  TRP134      0.2264
     97  O        -32.4430 -119.0830  175.1820 O.2   134  TRP134     -0.2867
     98  CB       -33.2850 -121.9410  176.6100 C.3   134  TRP134      0.0550
     99  CG       -32.5420 -122.1410  177.8980 C.ar  134  TRP134      0.0003
    100  CD1      -32.9360 -121.7390  179.1430 C.ar  134  TRP134      0.0946
    101  CD2      -31.3040 -122.8420  178.0760 C.ar  134  TRP134      0.0152
    102  NE1      -32.0220 -122.1460  180.0860 N.ar  134  TRP134     -0.2442
    103  CE2      -31.0100 -122.8260  179.4590 C.ar  134  TRP134      0.0810
    104  CE3      -30.4150 -123.4850  177.2030 C.ar  134  TRP134      0.0012
    105  CZ2      -29.8620 -123.4280  179.9910 C.ar  134  TRP134      0.0191
    106  CZ3      -29.2700 -124.0860  177.7320 C.ar  134  TRP134      0.0001
    107  CH2      -29.0060 -124.0510  179.1140 C.ar  134  TRP134      0.0015
    108  N        -37.7150 -124.0650  170.2640 N.3   147  ILE147     -0.1245
    109  CA       -37.8200 -125.4740  170.6030 C.3   147  ILE147      0.1561
    110  C        -39.2850 -125.8520  170.4570 C.2   147  ILE147      0.2260
    111  O        -40.1670 -125.0650  170.8050 O.2   147  ILE147     -0.2867
    112  CB       -37.3600 -125.7170  172.0540 C.3   147  ILE147      0.0252
    113  CG1      -35.9730 -125.1030  172.2610 C.3   147  ILE147      0.0019
    114  CG2      -37.2930 -127.2080  172.3460 C.3   147  ILE147      0.0019
    115  CD1      -35.4280 -125.2650  173.6720 C.3   147  ILE147      0.0001
    116  N        -41.0520 -127.5520  172.1770 N.3   149  ASP149     -0.1239
    117  CA       -41.6960 -127.5120  173.4850 C.3   149  ASP149      0.1674
    118  C        -42.4910 -126.2140  173.6190 C.2   149  ASP149      0.2266
    119  O        -43.5550 -126.1810  174.2450 O.2   149  ASP149     -0.2867
    120  CB       -40.6440 -127.5520  174.6060 C.3   149  ASP149      0.1410
    121  CG       -39.7650 -128.7940  174.5620 C.2   149  ASP149      0.3668
    122  OD1      -39.0980 -129.0400  173.5340 O.co2 149  ASP149     -0.2456
    123  OD2      -39.7310 -129.5280  175.5710 O.co2 149  ASP149     -0.2456
    124  N        -36.1830 -131.0620  167.0170 N.3   193  HIS193     -0.1241
    125  CA       -36.4090 -130.6670  168.3960 C.3   193  HIS193      0.1621
    126  C        -36.3760 -129.1430  168.4920 C.2   193  HIS193      0.2264
    127  O        -37.2640 -128.5210  169.0730 O.2   193  HIS193     -0.2867
    128  CB       -35.3190 -131.2510  169.2890 C.3   193  HIS193      0.0745
    129  CG       -35.4350 -130.8420  170.7200 C.ar  193  HIS193      0.0817
    130  ND1      -34.4060 -130.9960  171.6220 N.ar  193  HIS193     -0.2268
    131  CD2      -36.4590 -130.2820  171.4080 C.ar  193  HIS193      0.1154
    132  CE1      -34.7880 -130.5460  172.8040 C.ar  193  HIS193      0.1986
    133  NE2      -36.0290 -130.1080  172.7010 N.ar  193  HIS193     -0.2212
    134  N        -30.7240 -132.7270  172.7360 N.3   211  GLN211     -0.1245
    135  CA       -31.4800 -133.6900  173.5320 C.3   211  GLN211      0.1566
    136  C        -31.8950 -134.9170  172.7130 C.2   211  GLN211      0.2260
    137  O        -31.7630 -136.0500  173.1730 O.2   211  GLN211     -0.2867
    138  CB       -32.7010 -132.9760  174.1220 C.3   211  GLN211      0.0367
    139  CG       -33.4610 -133.7300  175.2010 C.3   211  GLN211      0.0905
    140  CD       -34.1990 -132.7810  176.1350 C.2   211  GLN211      0.2608
    141  OE1      -34.6290 -131.7000  175.7260 O.2   211  GLN211     -0.2717
    142  NE2      -34.3530 -133.1840  177.3920 N.am  211  GLN211     -0.0878
    143  N        -36.9840 -137.2720  168.2710 N.3   219  TRP219     -0.1241
    144  CA       -37.0490 -137.4190  169.7210 C.3   219  TRP219      0.1605
    145  C        -38.5400 -137.5820  170.0130 C.2   219  TRP219      0.2264
    146  O        -39.3260 -136.6990  169.6760 O.2   219  TRP219     -0.2867
    147  CB       -36.4890 -136.1500  170.3570 C.3   219  TRP219      0.0550
    148  CG       -36.3920 -136.1620  171.8390 C.ar  219  TRP219      0.0003
    149  CD1      -35.8430 -137.1350  172.6190 C.ar  219  TRP219      0.0946
    150  CD2      -36.8050 -135.1170  172.7280 C.ar  219  TRP219      0.0152
    151  NE1      -35.8870 -136.7620  173.9400 N.ar  219  TRP219     -0.2442
    152  CE2      -36.4730 -135.5270  174.0350 C.ar  219  TRP219      0.0810
    153  CE3      -37.4230 -133.8730  172.5430 C.ar  219  TRP219      0.0012
    154  CZ2      -36.7380 -134.7360  175.1610 C.ar  219  TRP219      0.0191
    155  CZ3      -37.6870 -133.0860  173.6600 C.ar  219  TRP219      0.0001
    156  CH2      -37.3440 -133.5230  174.9530 C.ar  219  TRP219      0.0015
    157  N        -40.4850 -137.3540  172.7420 N.3   221  ARG221     -0.1245
    158  CA       -41.1770 -136.3330  173.5110 C.3   221  ARG221      0.1563
    159  C        -41.3990 -135.0930  172.6360 C.2   221  ARG221      0.2260
    160  O        -42.4230 -134.4080  172.7580 O.2   221  ARG221     -0.2867
    161  CB       -40.4040 -135.9560  174.7800 C.3   221  ARG221      0.0307
    162  CG       -41.0500 -134.7740  175.5090 C.3   221  ARG221      0.0489
    163  CD       -40.9000 -134.8000  177.0270 C.3   221  ARG221      0.2205
    164  NE       -39.5650 -134.4530  177.5020 N.pl3 221  ARG221     -0.0865
    165  CZ       -38.6480 -135.3340  177.8930 C.cat 221  ARG221      0.5346
    166  NH1      -37.4690 -134.9060  178.3180 N.pl3 221  ARG221      0.1354
    167  NH2      -38.9020 -136.6390  177.8600 N.pl3 221  ARG221      0.1354
    168  N        -44.7900 -133.1870  171.9460 N.3   225  TRP225     -0.1241
    169  CA       -45.0580 -131.7660  172.1880 C.3   225  TRP225      0.1605
    170  C        -45.7410 -131.1990  170.9430 C.2   225  TRP225      0.2264
    171  O        -46.6440 -130.3640  171.0280 O.2   225  TRP225     -0.2867
    172  CB       -43.7580 -130.9910  172.4050 C.3   225  TRP225      0.0550
    173  CG       -43.0520 -131.2150  173.7110 C.ar  225  TRP225      0.0003
    174  CD1      -41.7050 -131.3010  173.8860 C.ar  225  TRP225      0.0946
    175  CD2      -43.6330 -131.2980  175.0260 C.ar  225  TRP225      0.0152
    176  NE1      -41.4070 -131.4270  175.2190 N.ar  225  TRP225     -0.2442
    177  CE2      -42.5690 -131.4270  175.9420 C.ar  225  TRP225      0.0810
    178  CE3      -44.9470 -131.2710  175.5180 C.ar  225  TRP225      0.0012
    179  CZ2      -42.7730 -131.5310  177.3270 C.ar  225  TRP225      0.0191
    180  CZ3      -45.1500 -131.3750  176.8990 C.ar  225  TRP225      0.0001
    181  CH2      -44.0670 -131.5030  177.7820 C.ar  225  TRP225      0.0015
    182  N        -35.4400 -138.0660  181.0900 N.3   338  TYR338     -0.1227
    183  CA       -35.2270 -136.6260  181.0420 C.3   338  TYR338      0.1736
    184  C        -34.2510 -136.3070  179.9140 C.2   338  TYR338      0.2595
    185  O        -34.6420 -135.7410  178.8900 O.2   338  TYR338     -0.2718
    186  CB       -34.6630 -136.1200  182.3760 C.3   338  TYR338      0.0548
    187  CG       -34.6950 -134.6110  182.5010 C.ar  338  TYR338     -0.0200
    188  CD1      -33.9840 -133.9580  183.5030 C.ar  338  TYR338     -0.0009
    189  CD2      -35.4330 -133.8360  181.6060 C.ar  338  TYR338     -0.0009
    190  CE1      -34.0030 -132.5640  183.6080 C.ar  338  TYR338      0.0417
    191  CE2      -35.4620 -132.4530  181.7020 C.ar  338  TYR338      0.0417
    192  CZ       -34.7480 -131.8220  182.6990 C.ar  338  TYR338      0.1957
    193  OH       -34.7860 -130.4460  182.7840 O.3   338  TYR338     -0.2866
    194  N        -32.9900 -136.6890  180.1110 N.am  339  HIS339     -0.1975
    195  CA       -31.9210 -136.4820  179.1340 C.3   339  HIS339      0.1656
    196  C        -31.1010 -137.7520  178.9150 C.2   339  HIS339      0.2291
    197  O        -30.0280 -137.8940  179.5080 O.2   339  HIS339     -0.2864
    198  CB       -30.9660 -135.3840  179.6110 C.3   339  HIS339      0.0771
    199  CG       -31.5140 -134.0000  179.4750 C.ar  339  HIS339      0.0820
    200  ND1      -31.2600 -133.2060  178.3790 N.ar  339  HIS339     -0.2267
    201  CD2      -32.3170 -133.2750  180.2890 C.ar  339  HIS339      0.1154
    202  CE1      -31.8840 -132.0500  178.5230 C.ar  339  HIS339      0.1986
    203  NE2      -32.5320 -132.0670  179.6740 N.ar  339  HIS339     -0.2212
    204  N        -28.8520 -138.4390  182.1800 N.3   344  ILE344     -0.1231
    205  CA       -29.5690 -137.7750  183.2550 C.3   344  ILE344      0.1692
    206  C        -31.0050 -138.2890  183.3710 C.2   344  ILE344      0.2592
    207  O        -31.8550 -137.9880  182.5270 O.2   344  ILE344     -0.2718
    208  CB       -29.5500 -136.2480  183.0230 C.3   344  ILE344      0.0266
    209  CG1      -28.0950 -135.7510  183.0170 C.3   344  ILE344      0.0019
    210  CG2      -30.3260 -135.5470  184.0940 C.3   344  ILE344      0.0020
    211  CD1      -27.9260 -134.2990  182.5910 C.3   344  ILE344      0.0001
    212  N        -31.2570 -139.0750  184.4190 N.am  345  SER345     -0.1952
    213  CA       -32.5710 -139.6630  184.6730 C.3   345  SER345      0.1924
    214  C        -33.1570 -140.2830  183.4030 C.2   345  SER345      0.2314
    215  O        -34.2590 -139.9430  182.9830 O.2   345  SER345     -0.2863
    216  CB       -33.5280 -138.5970  185.2340 C.3   345  SER345      0.2116
    217  OG       -33.1030 -138.1470  186.5150 O.3   345  SER345     -0.2180
@<TRIPOS>BOND
     1   124   125    1
     2   143   144    1
     3   125   126    1
     4   125   128    1
     5   126   127    2
     6   128   129    1
     7   146   145    2
     8   144   145    1
     9   144   147    1
    10   108   109    1
    11   147   148    1
    12   110   109    1
    13   110   111    2
    14   109   112    1
    15   129   131   ar
    16   129   130   ar
    17   170   171    2
    18   170   169    1
    19   131   133   ar
    20   130   132   ar
    21   148   149   ar
    22   148   150   ar
    23   168   169    1
    24   112   113    1
    25   112   114    1
    26   116   117    1
    27   169   172    1
    28   113   115    1
    29   172   173    1
    30   153   150   ar
    31   153   155   ar
    32   149   151   ar
    33   159   160    2
    34   159   158    1
    35   133   132   ar
    36   136   137    2
    37   136   135    1
    38   150   152   ar
    39   134   135    1
    40   157   158    1
    41   117   118    1
    42   117   120    1
    43   158   161    1
    44   135   138    1
    45   122   121   ar
    46   118   119    2
    47   155   156   ar
    48   173   174   ar
    49   173   175   ar
    50   174   176   ar
    51   151   152   ar
    52   152   154   ar
    53   138   139    1
    54   121   120    1
    55   121   123   ar
    56   161   162    1
    57   156   154   ar
    58   175   178   ar
    59   175   177   ar
    60    97    96    2
    61   139   140    1
    62   176   177   ar
    63    94    95    1
    64    71    73   ar
    65    71    70   ar
    66   162   163    1
    67   178   180   ar
    68    73    74   ar
    69   141   140    2
    70   177   179   ar
    71    69    70    1
    72    69    66    1
    73   140   142   am
    74    70    72   ar
    75    96    95    1
    76    95    98    1
    77    98    99    1
    78    74    72   ar
    79   180   181   ar
    80   163   164    1
    81   104   106   ar
    82   104   101   ar
    83   179   181   ar
    84    66    65    1
    85    66    67    1
    86   164   165    2
    87   106   107   ar
    88    93    92   ar
    89    93    91   ar
    90   167   165    1
    91   165   166    1
    92    99   101   ar
    93    99   100   ar
    94    65    57   am
    95    92    90   ar
    96   101   103   ar
    97    68    67    2
    98    67    75   am
    99   200   202   ar
   100   200   199   ar
   101   202   203   ar
   102    91    89   ar
   103   185   184    2
   104   196   195    1
   105   196   197    2
   106    57    58    2
   107    57    56    1
   108   107   105   ar
   109   195   198    1
   110   195   194    1
   111   100   102   ar
   112    75    76    1
   113    90    88   ar
   114    81    80    2
   115   103   105   ar
   116   103   102   ar
   117   199   198    1
   118   199   201   ar
   119    56    59    1
   120    56    55    1
   121   203   201   ar
   122    89    88   ar
   123   184   194   am
   124   184   183    1
   125    76    79    1
   126    76    77    1
   127    88    87    1
   128    80    82   am
   129    80    79    1
   130    59    60    1
   131    83    84    1
   132    54    53   ar
   133    54    52   ar
   134    53    51   ar
   135    77    78    2
   136   183   182    1
   137   183   186    1
   138    52    50   ar
   139    87    84    1
   140    51    48   ar
   141    60    62   ar
   142    60    61   ar
   143    84    85    1
   144   189   191   ar
   145   189   187   ar
   146   191   192   ar
   147    62    64   ar
   148    50    48   ar
   149    50    49   ar
   150    48    46   ar
   151   204   205    1
   152    49    47   ar
   153   186   187    1
   154   187   188   ar
   155    46    47   ar
   156    46    45    1
   157   207   206    2
   158   211   209    1
   159    61    63   ar
   160   192   193    1
   161   192   190   ar
   162    45    42    1
   163    64    63   ar
   164   215   214    2
   165   209   208    1
   166   208   205    1
   167   208   210    1
   168    85    86    2
   169   205   206    1
   170   206   212   am
   171   214   213    1
   172   188   190   ar
   173    44    43    2
   174    42    43    1
   175    42    41    1
   176   212   213    1
   177   213   216    1
   178   216   217    1
   179    41    35   am
   180    39    38   ar
   181    10     9   ar
   182    10     8   ar
   183    16    15    1
   184     9     7   ar
   185    35    36    2
   186    35    34    1
   187    38    40   ar
   188    38    37    1
   189     8     6   ar
   190    15    17    1
   191    15    12    1
   192    34    37    1
   193    34    33    1
   194     7     6   ar
   195     4     3    2
   196     6     5    1
   197    12    11    1
   198    12    13    1
   199     3    11   am
   200     3     2    1
   201    24    23   ar
   202     2     5    1
   203     2     1    1
   204    13    14    2
   205    23    25   ar
   206    23    22    1
   207    19    22    1
   208    19    18    1
   209    19    20    1
   210    20    21    2
   211    30    32    1
   212    30    31    1
   213    30    27    1
   214    29    28    2
   215    26    27    1
   216    27    28    1
