@<TRIPOS>MOLECULE
tmp/2fv5A00.pdb
 199 195 0 0 0
SMALL
GASTEIGER

@<TRIPOS>ATOM
      1  N         -3.6140   10.8870   19.9640 N.3    99  VAL99      -0.1245
      2  CA        -2.9580   11.7110   20.9790 C.3    99  VAL99       0.1561
      3  C         -2.6210   13.1550   20.5900 C.2    99  VAL99       0.2260
      4  O         -2.8100   14.0700   21.3920 O.2    99  VAL99      -0.2867
      5  CB        -1.6830   11.0110   21.5280 C.3    99  VAL99       0.0252
      6  CG1       -0.5760   10.9920   20.4670 C.3    99  VAL99       0.0019
      7  CG2       -1.2190   11.7070   22.8060 C.3    99  VAL99       0.0019
      8  N         -0.5160    1.9740   20.0810 N.3   130  MET130     -0.1230
      9  CA         0.8990    1.6100   20.0810 C.3   130  MET130      0.1702
     10  C          1.7490    1.9820   21.2950 C.2   130  MET130      0.2593
     11  O          2.9310    2.2890   21.1570 O.2   130  MET130     -0.2718
     12  CB         1.5510    2.1450   18.8000 C.3   130  MET130      0.0401
     13  CG         0.7240    1.8230   17.5540 C.3   130  MET130      0.0596
     14  SD         1.4690    2.3420   15.9840 S.3   130  MET130     -0.1393
     15  CE         1.3230    0.7800   15.0570 C.3   130  MET130      0.0692
     16  N          1.1560    1.9490   22.4830 N.am  131  GLY131     -0.1942
     17  CA         1.9230    2.2340   23.6870 C.3   131  GLY131      0.2014
     18  C          2.2280    3.6710   24.0800 C.2   131  GLY131      0.2640
     19  O          2.9560    3.8980   25.0500 O.2   131  GLY131     -0.2714
     20  N          1.6840    4.6390   23.3510 N.am  132  THR132     -0.1936
     21  CA         1.9220    6.0440   23.6780 C.3   132  THR132      0.2028
     22  C          1.3560    6.3600   25.0550 C.2   132  THR132      0.2642
     23  O          0.2070    6.0230   25.3610 O.2   132  THR132     -0.2714
     24  CB         1.2780    6.9700   22.6410 C.3   132  THR132      0.1808
     25  OG1        1.8430    6.6760   21.3610 O.3   132  THR132     -0.2208
     26  CG2        1.5260    8.4520   22.9910 C.3   132  THR132      0.0379
     27  N          2.1750    7.0140   25.8740 N.am  133  LEU133     -0.1963
     28  CA         1.8040    7.3700   27.2300 C.3   133  LEU133      0.1728
     29  C          1.4720    8.8500   27.4370 C.2   133  LEU133      0.2617
     30  O          0.6320    9.1810   28.2690 O.2   133  LEU133     -0.2715
     31  CB         2.9360    6.9570   28.1800 C.3   133  LEU133      0.0311
     32  CG         3.0390    5.4290   28.3160 C.3   133  LEU133      0.0022
     33  CD1        4.3780    5.0090   28.9320 C.3   133  LEU133      0.0001
     34  CD2        1.8730    4.9370   29.1770 C.3   133  LEU133      0.0001
     35  N          2.1270    9.7310   26.6840 N.am  134  GLY134     -0.1940
     36  CA         1.8930   11.1530   26.8510 C.3   134  GLY134      0.2014
     37  C          2.4090   11.9870   25.6960 C.2   134  GLY134      0.2639
     38  O          3.0190   11.4710   24.7610 O.2   134  GLY134     -0.2714
     39  N          2.1640   13.2920   25.7720 N.am  135  LEU135     -0.1963
     40  CA         2.5760   14.2170   24.7290 C.3   135  LEU135      0.1728
     41  C          2.6420   15.6360   25.3320 C.2   135  LEU135      0.2616
     42  O          1.9410   15.9390   26.3010 O.2   135  LEU135     -0.2715
     43  CB         1.5510   14.1720   23.5810 C.3   135  LEU135      0.0311
     44  CG         2.0700   14.8070   22.2850 C.3   135  LEU135      0.0022
     45  CD1        3.1280   13.8840   21.6550 C.3   135  LEU135      0.0001
     46  CD2        0.9090   15.0050   21.3010 C.3   135  LEU135      0.0001
     47  N          3.4750   16.5010   24.7540 N.am  136  ALA136     -0.1977
     48  CA         3.6220   17.8710   25.2440 C.3   136  ALA136      0.1597
     49  C          4.2590   18.7690   24.1930 C.2   136  ALA136      0.2287
     50  O          4.9100   18.2780   23.2720 O.2   136  ALA136     -0.2864
     51  CB         4.4850   17.8830   26.5000 C.3   136  ALA136      0.0319
     52  N          5.6030    4.2970   37.1090 N.3   183  GLU183     -0.1245
     53  CA         5.6850    4.5410   35.6710 C.3   183  GLU183      0.1567
     54  C          4.9940    5.8670   35.3520 C.2   183  GLU183      0.2260
     55  O          5.4210    6.5970   34.4590 O.2   183  GLU183     -0.2867
     56  CB         5.0090    3.4160   34.8740 C.3   183  GLU183      0.0388
     57  CG         5.5560    2.0220   35.1700 C.3   183  GLU183      0.1160
     58  CD         4.7670    0.9340   34.4580 C.2   183  GLU183      0.3649
     59  OE1        3.5200    0.9180   34.5760 O.co2 183  GLU183     -0.2457
     60  OE2        5.3880    0.0910   33.7780 O.co2 183  GLU183     -0.2457
     61  N          7.2740    8.8320   35.8020 N.3   186  LEU186     -0.1231
     62  CA         8.2150    9.0190   34.6980 C.3   186  LEU186      0.1693
     63  C          7.5930    9.6600   33.4690 C.2   186  LEU186      0.2591
     64  O          8.2430   10.4420   32.7820 O.2   186  LEU186     -0.2718
     65  CB         8.8430    7.6790   34.2990 C.3   186  LEU186      0.0284
     66  CG         9.6410    7.0410   35.4360 C.3   186  LEU186      0.0019
     67  CD1       10.1290    5.6580   35.0060 C.3   186  LEU186      0.0001
     68  CD2       10.8220    7.9400   35.8000 C.3   186  LEU186      0.0001
     69  N          6.3420    9.3190   33.1740 N.am  187  VAL187     -0.1980
     70  CA         5.6670    9.8920   32.0090 C.3   187  VAL187      0.1595
     71  C          5.5150   11.4120   32.1870 C.2   187  VAL187      0.2287
     72  O          5.9790   12.2040   31.3630 O.2   187  VAL187     -0.2864
     73  CB         4.2680    9.2520   31.8070 C.3   187  VAL187      0.0276
     74  CG1        3.4800   10.0130   30.7410 C.3   187  VAL187      0.0022
     75  CG2        4.4220    7.7830   31.3940 C.3   187  VAL187      0.0022
     76  N          8.6690   13.1790   32.0210 N.3   190  HIS190     -0.1226
     77  CA         9.0700   13.2360   30.6130 C.3   190  HIS190      0.1752
     78  C          8.3790   14.3720   29.8520 C.2   190  HIS190      0.2595
     79  O          9.0350   15.1850   29.1990 O.2   190  HIS190     -0.2718
     80  CB         8.7390   11.8990   29.9400 C.3   190  HIS190      0.0759
     81  CG         9.0540   11.8480   28.4770 C.ar  190  HIS190      0.0818
     82  ND1       10.2460   11.3550   27.9860 N.ar  190  HIS190     -0.2268
     83  CD2        8.3150   12.1890   27.3930 C.ar  190  HIS190      0.1154
     84  CE1       10.2260   11.3900   26.6640 C.ar  190  HIS190      0.1986
     85  NE2        9.0650   11.8930   26.2790 N.ar  190  HIS190     -0.2212
     86  N          7.0530   14.4130   29.9300 N.am  191  GLU191     -0.1979
     87  CA         6.2780   15.4280   29.2410 C.3   191  GLU191      0.1602
     88  C          6.6120   16.8380   29.7560 C.2   191  GLU191      0.2287
     89  O          6.7520   17.7830   28.9700 O.2   191  GLU191     -0.2864
     90  CB         4.7780   15.1500   29.4200 C.3   191  GLU191      0.0415
     91  CG         4.3090   13.7400   29.0170 C.3   191  GLU191      0.1163
     92  CD         4.7910   13.3070   27.6410 C.2   191  GLU191      0.3649
     93  OE1        5.0700   14.1740   26.7890 O.co2 191  GLU191     -0.2457
     94  OE2        4.8780   12.0880   27.4070 O.co2 191  GLU191     -0.2457
     95  N          9.6830   18.1150   28.2030 N.3   194  HIS194     -0.1241
     96  CA         9.5360   18.7740   26.9070 C.3   194  HIS194      0.1621
     97  C          9.1080   20.2180   27.1500 C.2   194  HIS194      0.2264
     98  O          9.6020   21.1370   26.4970 O.2   194  HIS194     -0.2867
     99  CB         8.4700   18.0800   26.0490 C.3   194  HIS194      0.0745
    100  CG         8.9180   16.7910   25.4450 C.ar  194  HIS194      0.0817
    101  ND1       10.0380   16.6940   24.6450 N.ar  194  HIS194     -0.2268
    102  CD2        8.3840   15.5480   25.4950 C.ar  194  HIS194      0.1154
    103  CE1       10.1720   15.4500   24.2270 C.ar  194  HIS194      0.1986
    104  NE2        9.1810   14.7310   24.7270 N.ar  194  HIS194     -0.2212
    105  N         14.2550   14.4500   23.0990 N.3   200  HIS200     -0.1241
    106  CA        14.5640   13.0640   23.4240 C.3   200  HIS200      0.1621
    107  C         16.0700   12.7920   23.4110 C.2   200  HIS200      0.2264
    108  O         16.8070   13.3580   22.5940 O.2   200  HIS200     -0.2867
    109  CB        13.8680   12.1340   22.4340 C.3   200  HIS200      0.0745
    110  CG        12.3870   12.0600   22.6210 C.ar  200  HIS200      0.0817
    111  ND1       11.5350   11.6050   21.6390 N.ar  200  HIS200     -0.2268
    112  CD2       11.6040   12.3820   23.6790 C.ar  200  HIS200      0.1154
    113  CE1       10.2920   11.6530   22.0800 C.ar  200  HIS200      0.1986
    114  NE2       10.3070   12.1200   23.3160 N.ar  200  HIS200     -0.2212
    115  N         18.8000    4.1620   30.8840 N.3   217  LYS217     -0.1231
    116  CA        18.4440    5.3970   30.2000 C.3   217  LYS217      0.1693
    117  C         17.8960    6.4660   31.1410 C.2   217  LYS217      0.2592
    118  O         17.4500    6.1700   32.2460 O.2   217  LYS217     -0.2718
    119  CB        17.4010    5.1030   29.1150 C.3   217  LYS217      0.0285
    120  CG        17.8390    4.0760   28.0690 C.3   217  LYS217      0.0035
    121  CD        19.0670    4.5530   27.2980 C.3   217  LYS217      0.0206
    122  CE        19.4600    3.5670   26.2030 C.3   217  LYS217      0.1093
    123  NZ        19.7930    2.2260   26.7520 N.3   217  LYS217     -0.1314
    124  N         17.9340    7.7130   30.6890 N.am  218  TYR218     -0.1962
    125  CA        17.4100    8.8290   31.4660 C.3   218  TYR218      0.1771
    126  C         15.9390    9.0550   31.0880 C.2   218  TYR218      0.2619
    127  O         15.4470    8.4740   30.1190 O.2   218  TYR218     -0.2715
    128  CB        18.2390   10.0790   31.2040 C.3   218  TYR218      0.0574
    129  CG        19.6250    9.9980   31.7950 C.ar  218  TYR218     -0.0198
    130  CD1       19.8510   10.2990   33.1410 C.ar  218  TYR218     -0.0009
    131  CD2       20.7140    9.6020   31.0140 C.ar  218  TYR218     -0.0009
    132  CE1       21.1320   10.2150   33.6960 C.ar  218  TYR218      0.0417
    133  CE2       21.9990    9.5080   31.5600 C.ar  218  TYR218      0.0417
    134  CZ        22.1990    9.8210   32.8990 C.ar  218  TYR218      0.1957
    135  OH        23.4720    9.7670   33.4230 O.3   218  TYR218     -0.2866
    136  N         15.2510    9.9080   31.8420 N.am  219  VAL219     -0.1977
    137  CA        13.8290   10.1530   31.6250 C.3   219  VAL219      0.1596
    138  C         13.3950   10.6720   30.2480 C.2   219  VAL219      0.2287
    139  O         12.2680   10.4110   29.8230 O.2   219  VAL219     -0.2864
    140  CB        13.2600   11.0720   32.7320 C.3   219  VAL219      0.0276
    141  CG1       13.6980   12.5210   32.5100 C.3   219  VAL219      0.0022
    142  CG2       11.7380   10.9450   32.7790 C.3   219  VAL219      0.0022
    143  N         14.4970    9.6560   27.4020 N.3   221  TYR221     -0.1228
    144  CA        14.6810    8.6500   26.3610 C.3   221  TYR221      0.1721
    145  C         13.2950    8.4600   25.7360 C.2   221  TYR221      0.2437
    146  O         12.2940    8.4070   26.4490 O.2   221  TYR221     -0.2733
    147  CB        15.1680    7.3240   26.9530 C.3   221  TYR221      0.0547
    148  CG        15.7670    6.3860   25.9220 C.ar  221  TYR221     -0.0200
    149  CD1       16.8900    6.7640   25.1830 C.ar  221  TYR221     -0.0009
    150  CD2       15.1940    5.1400   25.6570 C.ar  221  TYR221     -0.0009
    151  CE1       17.4290    5.9320   24.2030 C.ar  221  TYR221      0.0417
    152  CE2       15.7280    4.2920   24.6720 C.ar  221  TYR221      0.0417
    153  CZ        16.8430    4.7010   23.9490 C.ar  221  TYR221      0.1957
    154  OH        17.3660    3.8900   22.9640 O.3   221  TYR221     -0.2866
    155  N         13.2190    8.3510   24.4010 N.am  222  PRO222     -0.2718
    156  CA        11.9300    8.1770   23.7230 C.3   222  PRO222      0.1535
    157  C         11.1950    6.8570   23.9440 C.2   222  PRO222      0.2598
    158  O         10.0690    6.7060   23.5070 O.2   222  PRO222     -0.2715
    159  CB        12.2810    8.3990   22.2530 C.3   222  PRO222      0.0310
    160  CG        13.6690    7.8880   22.1640 C.3   222  PRO222      0.0237
    161  CD        14.3190    8.4300   23.4220 C.3   222  PRO222      0.0939
    162  N         11.8230    5.8980   24.6080 N.am  223  ILE223     -0.1964
    163  CA        11.1760    4.6160   24.8510 C.3   223  ILE223      0.1727
    164  C         11.0230    4.3670   26.3500 C.2   223  ILE223      0.2616
    165  O         11.9100    4.6980   27.1380 O.2   223  ILE223     -0.2715
    166  CB        11.9840    3.4350   24.2160 C.3   223  ILE223      0.0290
    167  CG1       11.7990    3.4110   22.6920 C.3   223  ILE223      0.0022
    168  CG2       11.4860    2.0960   24.7740 C.3   223  ILE223      0.0023
    169  CD1       12.1650    4.6880   21.9800 C.3   223  ILE223      0.0001
    170  N          9.8860    3.7960   26.7390 N.am  224  ALA224     -0.1963
    171  CA         9.6220    3.4790   28.1410 C.3   224  ALA224      0.1728
    172  C         10.3170    2.1530   28.4580 C.2   224  ALA224      0.2616
    173  O          9.7380    1.0770   28.2890 O.2   224  ALA224     -0.2715
    174  CB         8.1150    3.3630   28.3760 C.3   224  ALA224      0.0334
    175  N         11.5610    2.2360   28.9230 N.am  225  VAL225     -0.1963
    176  CA        12.3590    1.0500   29.2250 C.3   225  VAL225      0.1727
    177  C         11.9640    0.2400   30.4680 C.2   225  VAL225      0.2617
    178  O         11.9570   -0.9950   30.4140 O.2   225  VAL225     -0.2715
    179  CB        13.8600    1.4190   29.3300 C.3   225  VAL225      0.0290
    180  CG1       14.7080    0.1510   29.4600 C.3   225  VAL225      0.0023
    181  CG2       14.2840    2.2230   28.1000 C.3   225  VAL225      0.0023
    182  N         11.6350    0.9100   31.5740 N.am  226  SER226     -0.1936
    183  CA        11.2590    0.1970   32.7990 C.3   226  SER226      0.2055
    184  C         10.8950    1.1340   33.9590 C.2   226  SER226      0.2643
    185  O          9.7380    1.2250   34.3710 O.2   226  SER226     -0.2714
    186  CB        12.4110   -0.7210   33.2330 C.3   226  SER226      0.2130
    187  OG        11.9880   -1.6700   34.2000 O.3   226  SER226     -0.2179
    188  N         11.8980    1.8400   34.4680 N.am  227  GLY227     -0.1954
    189  CA        11.7050    2.7450   35.5870 C.3   227  GLY227      0.1869
    190  C         12.4330    2.0820   36.7370 C.2   227  GLY227      0.2309
    191  O         12.5420    2.6110   37.8440 O.2   227  GLY227     -0.2863
    192  N         16.7350    6.2500   35.1350 N.3   232  ASN232     -0.1240
    193  CA        15.3630    6.4890   34.6930 C.3   232  ASN232      0.1653
    194  C         14.6960    7.7500   35.2520 C.2   232  ASN232      0.2266
    195  O         14.0150    8.4790   34.5220 O.2   232  ASN232     -0.2867
    196  CB        14.5000    5.2710   35.0190 C.3   232  ASN232      0.1155
    197  CG        14.9510    4.0150   34.2860 C.2   232  ASN232      0.2627
    198  OD1       14.4150    2.9340   34.5120 O.2   232  ASN232     -0.2716
    199  ND2       15.9310    4.1540   33.4000 N.am  232  ASN232     -0.0877
@<TRIPOS>BOND
     1    15    14    1
     2    14    13    1
     3    13    12    1
     4    12     9    1
     5     1     2    1
     6     8     9    1
     7     9    10    1
     8     6     5    1
     9     3     2    1
    10     3     4    2
    11     2     5    1
    12    11    10    2
    13    10    16   am
    14    46    44    1
    15    25    24    1
    16     5     7    1
    17   111   113   ar
    18   111   110   ar
    19    45    44    1
    20   169   167    1
    21   113   114   ar
    22   160   159    1
    23   160   161    1
    24   159   156    1
    25    44    43    1
    26   109   110    1
    27   109   106    1
    28    16    17    1
    29   108   107    2
    30   110   112   ar
    31    24    26    1
    32    24    21    1
    33   167   166    1
    34   154   153    1
    35   105   106    1
    36    50    49    2
    37   114   112   ar
    38    20    21    1
    39    20    18   am
    40   107   106    1
    41   161   155    1
    42   158   157    2
    43    43    40    1
    44    21    22    1
    45    17    18    1
    46   156   157    1
    47   156   155    1
    48   157   162   am
    49   153   151   ar
    50   153   152   ar
    51    18    19    2
    52    49    48    1
    53   151   149   ar
    54   166   168    1
    55   166   163    1
    56   103   101   ar
    57   103   104   ar
    58   155   145   am
    59   162   163    1
    60   101   100   ar
    61   152   150   ar
    62   104   102   ar
    63    40    41    1
    64    40    39    1
    65    47    48    1
    66    47    41   am
    67    38    37    2
    68   163   164    1
    69    22    23    2
    70    22    27   am
    71   149   148   ar
    72    48    51    1
    73    41    42    2
    74   100   102   ar
    75   100    99    1
    76   150   148   ar
    77    37    39   am
    78    37    36    1
    79   145   144    1
    80   145   146    2
    81    27    28    1
    82   148   147    1
    83    99    96    1
    84   122   123    1
    85   122   121    1
    86    85    84   ar
    87    85    83   ar
    88   164   170   am
    89   164   165    2
    90   144   147    1
    91   144   143    1
    92    98    97    2
    93    84    82   ar
    94    35    36    1
    95    35    29   am
    96   170   171    1
    97    93    92   ar
    98    96    97    1
    99    96    95    1
   100    28    29    1
   101    28    31    1
   102   121   120    1
   103    83    81   ar
   104    94    92   ar
   105    29    30    2
   106    92    91    1
   107    82    81   ar
   108   120   119    1
   109   181   179    1
   110   171   174    1
   111   171   172    1
   112    31    32    1
   113   173   172    2
   114    32    33    1
   115    32    34    1
   116   172   175   am
   117    81    80    1
   118   175   176    1
   119    89    88    2
   120    91    90    1
   121   119   116    1
   122    79    78    2
   123   176   179    1
   124   176   177    1
   125    87    90    1
   126    87    88    1
   127    87    86    1
   128   179   180    1
   129   139   138    2
   130    78    86   am
   131    78    77    1
   132    80    77    1
   133   127   126    2
   134   116   115    1
   135   116   117    1
   136   138   137    1
   137   178   177    2
   138   177   182   am
   139    77    76    1
   140   124   117   am
   141   124   125    1
   142    74    73    1
   143   131   133   ar
   144   131   129   ar
   145   126   125    1
   146   126   136   am
   147   117   118    2
   148   128   125    1
   149   128   129    1
   150    72    71    2
   151    75    73    1
   152   133   134   ar
   153   182   183    1
   154   137   136    1
   155   137   140    1
   156   129   130   ar
   157    73    70    1
   158    70    71    1
   159    70    69    1
   160   141   140    1
   161   140   142    1
   162    64    63    2
   163   183   186    1
   164   183   184    1
   165   134   135    1
   166   134   132   ar
   167   130   132   ar
   168    69    63   am
   169   186   187    1
   170   199   197   am
   171    63    62    1
   172    60    58   ar
   173   184   185    2
   174   184   188   am
   175   197   198    2
   176   197   196    1
   177    65    62    1
   178    65    66    1
   179    58    59   ar
   180    58    57    1
   181    55    54    2
   182   188   189    1
   183   195   194    2
   184   193   196    1
   185   193   192    1
   186   193   194    1
   187    62    61    1
   188    56    57    1
   189    56    53    1
   190    67    66    1
   191    54    53    1
   192    66    68    1
   193   189   190    1
   194    53    52    1
   195   190   191    2
