@<TRIPOS>MOLECULE
tmp/2fv9B00.pdb
 182 178 0 0 0
SMALL
GASTEIGER

@<TRIPOS>ATOM
      1  N         41.6700   27.7620   33.2060 N.3   126  MET126     -0.1230
      2  CA        42.8900   27.0810   33.6170 C.3   126  MET126      0.1702
      3  C         43.1410   27.1470   35.1250 C.2   126  MET126      0.2593
      4  O         44.2530   26.8760   35.5730 O.2   126  MET126     -0.2718
      5  CB        44.1060   27.6600   32.8740 C.3   126  MET126      0.0401
      6  CG        43.9500   27.7760   31.3510 C.3   126  MET126      0.0596
      7  SD        45.4900   28.2390   30.4770 S.3   126  MET126     -0.1393
      8  CE        45.8030   29.9290   31.1170 C.3   126  MET126      0.0692
      9  N         42.1220   27.5120   35.9010 N.am  127  GLY127     -0.1942
     10  CA        42.2840   27.5740   37.3460 C.3   127  GLY127      0.2014
     11  C         42.9920   28.7970   37.9180 C.2   127  GLY127      0.2640
     12  O         43.4930   28.7620   39.0480 O.2   127  GLY127     -0.2714
     13  N         43.0320   29.8800   37.1480 N.am  128  THR128     -0.1936
     14  CA        43.6690   31.1180   37.5860 C.3   128  THR128      0.2028
     15  C         42.8180   31.7720   38.6830 C.2   128  THR128      0.2642
     16  O         41.5950   31.8600   38.5520 O.2   128  THR128     -0.2714
     17  CB        43.8140   32.0900   36.3940 C.3   128  THR128      0.1808
     18  OG1       44.6490   31.4930   35.3920 O.3   128  THR128     -0.2208
     19  CG2       44.4280   33.4170   36.8460 C.3   128  THR128      0.0379
     20  N         43.4530   32.2270   39.7630 N.am  129  LEU129     -0.1963
     21  CA        42.7100   32.8620   40.8520 C.3   129  LEU129      0.1728
     22  C         42.9300   34.3670   41.0070 C.2   129  LEU129      0.2617
     23  O         42.1420   35.0520   41.6620 O.2   129  LEU129     -0.2715
     24  CB        43.0260   32.1800   42.1880 C.3   129  LEU129      0.0311
     25  CG        42.3850   30.7920   42.3240 C.3   129  LEU129      0.0022
     26  CD1       42.6850   30.2110   43.7060 C.3   129  LEU129      0.0001
     27  CD2       40.8650   30.8610   42.1210 C.3   129  LEU129      0.0001
     28  N         43.9990   34.8900   40.4240 N.am  130  GLY130     -0.1940
     29  CA        44.2460   36.3160   40.5470 C.3   130  GLY130      0.2014
     30  C         45.2810   36.8310   39.5720 C.2   130  GLY130      0.2638
     31  O         45.9310   36.0490   38.8820 O.2   130  GLY130     -0.2714
     32  N         45.4380   38.1500   39.5170 N.am  131  LEU131     -0.1977
     33  CA        46.4120   38.7530   38.6160 C.3   131  LEU131      0.1596
     34  C         46.8030   40.1160   39.1800 C.2   131  LEU131      0.2287
     35  O         46.0060   40.7580   39.8640 O.2   131  LEU131     -0.2864
     36  CB        45.7890   38.9010   37.2210 C.3   131  LEU131      0.0297
     37  CG        46.8090   39.1500   36.1070 C.3   131  LEU131      0.0022
     38  CD1       47.6900   37.9150   35.8910 C.3   131  LEU131      0.0001
     39  CD2       46.0840   39.5130   34.8050 C.3   131  LEU131      0.0001
     40  N         36.5190   28.9640   41.9340 N.3   170  ASN170     -0.1225
     41  CA        37.3660   28.1620   41.0620 C.3   170  ASN170      0.1785
     42  C         36.7010   26.8090   40.8480 C.2   170  ASN170      0.2597
     43  O         36.2220   26.1880   41.8000 O.2   170  ASN170     -0.2718
     44  CB        38.7580   27.9870   41.6840 C.3   170  ASN170      0.1169
     45  CG        39.7850   27.4810   40.6840 C.2   170  ASN170      0.2627
     46  OD1       39.6820   27.7460   39.4860 O.2   170  ASN170     -0.2716
     47  ND2       40.7940   26.7680   41.1770 N.am  170  ASN170     -0.0877
     48  N         36.6720   26.3620   39.5930 N.am  171  TYR171     -0.1976
     49  CA        36.0440   25.0910   39.2460 C.3   171  TYR171      0.1639
     50  C         34.6690   25.0130   39.9170 C.2   171  TYR171      0.2290
     51  O         34.3540   24.0590   40.6320 O.2   171  TYR171     -0.2864
     52  CB        36.9290   23.9190   39.6890 C.3   171  TYR171      0.0560
     53  CG        38.3180   23.9230   39.0710 C.ar  171  TYR171     -0.0198
     54  CD1       38.5090   23.6630   37.7080 C.ar  171  TYR171     -0.0009
     55  CD2       39.4410   24.2020   39.8470 C.ar  171  TYR171     -0.0009
     56  CE1       39.7920   23.6860   37.1400 C.ar  171  TYR171      0.0417
     57  CE2       40.7190   24.2260   39.2910 C.ar  171  TYR171      0.0417
     58  CZ        40.8860   23.9700   37.9440 C.ar  171  TYR171      0.1957
     59  OH        42.1510   24.0210   37.4120 O.3   171  TYR171     -0.2866
     60  N         36.5560   28.8770   46.9280 N.3   175  ILE175     -0.1245
     61  CA        37.8340   28.3310   47.3840 C.3   175  ILE175      0.1561
     62  C         37.9530   28.4740   48.8930 C.2   175  ILE175      0.2260
     63  O         37.1970   29.2120   49.5040 O.2   175  ILE175     -0.2867
     64  CB        39.0290   29.0560   46.7080 C.3   175  ILE175      0.0252
     65  CG1       39.1370   30.4980   47.2180 C.3   175  ILE175      0.0019
     66  CG2       38.8430   28.9970   45.1890 C.3   175  ILE175      0.0019
     67  CD1       40.2440   31.3040   46.5180 C.3   175  ILE175      0.0001
     68  N         43.1900   29.5670   51.0620 N.3   179  GLU179     -0.1245
     69  CA        43.6600   29.6800   49.6710 C.3   179  GLU179      0.1567
     70  C         43.4970   31.1330   49.2360 C.2   179  GLU179      0.2260
     71  O         44.3940   31.7080   48.6040 O.2   179  GLU179     -0.2867
     72  CB        42.8550   28.7620   48.7300 C.3   179  GLU179      0.0388
     73  CG        42.8750   27.2900   49.1350 C.3   179  GLU179      0.1160
     74  CD        41.9600   26.4050   48.2790 C.2   179  GLU179      0.3649
     75  OE1       40.8940   26.8720   47.8520 O.co2 179  GLU179     -0.2457
     76  OE2       42.3140   25.2380   48.0510 O.co2 179  GLU179     -0.2457
     77  N         46.1870   33.2880   50.3180 N.3   182  LEU182     -0.1231
     78  CA        47.3870   33.1000   49.5170 C.3   182  LEU182      0.1693
     79  C         47.3230   33.8050   48.1590 C.2   182  LEU182      0.2591
     80  O         48.3090   34.3770   47.7200 O.2   182  LEU182     -0.2718
     81  CB        47.6770   31.5990   49.3440 C.3   182  LEU182      0.0284
     82  CG        47.9470   30.9410   50.7070 C.3   182  LEU182      0.0019
     83  CD1       48.2470   29.4540   50.5460 C.3   182  LEU182      0.0001
     84  CD2       49.1100   31.6330   51.4250 C.3   182  LEU182      0.0001
     85  N         46.1650   33.7780   47.5080 N.am  183  VAL183     -0.1980
     86  CA        46.0080   34.4420   46.2150 C.3   183  VAL183      0.1595
     87  C         46.3350   35.9310   46.4000 C.2   183  VAL183      0.2287
     88  O         47.1650   36.5150   45.6790 O.2   183  VAL183     -0.2864
     89  CB        44.5450   34.2940   45.6800 C.3   183  VAL183      0.0276
     90  CG1       44.3870   35.0220   44.3390 C.3   183  VAL183      0.0022
     91  CG2       44.2080   32.8090   45.4930 C.3   183  VAL183      0.0022
     92  N         49.9990   36.7420   47.2380 N.3   186  HIS186     -0.1226
     93  CA        50.7530   36.5410   45.9940 C.3   186  HIS186      0.1752
     94  C         50.5830   37.7030   45.0060 C.2   186  HIS186      0.2595
     95  O         51.5640   38.1900   44.4410 O.2   186  HIS186     -0.2718
     96  CB        50.2980   35.2370   45.3250 C.3   186  HIS186      0.0759
     97  CG        50.9260   34.9830   43.9870 C.ar  186  HIS186      0.0818
     98  ND1       51.9640   34.0930   43.8100 N.ar  186  HIS186     -0.2268
     99  CD2       50.6370   35.4740   42.7550 C.ar  186  HIS186      0.1154
    100  CE1       52.2870   34.0430   42.5290 C.ar  186  HIS186      0.1986
    101  NE2       51.4950   34.8710   41.8670 N.ar  186  HIS186     -0.2212
    102  N         49.3450   38.1300   44.7800 N.am  187  GLU187     -0.1979
    103  CA        49.1050   39.2390   43.8690 C.3   187  GLU187      0.1602
    104  C         49.7300   40.5230   44.4360 C.2   187  GLU187      0.2287
    105  O         50.3250   41.3130   43.6850 O.2   187  GLU187     -0.2864
    106  CB        47.6060   39.4210   43.6250 C.3   187  GLU187      0.0415
    107  CG        46.9040   38.2020   43.0300 C.3   187  GLU187      0.1163
    108  CD        47.6590   37.5560   41.8720 C.2   187  GLU187      0.3649
    109  OE1       48.4520   38.2640   41.1910 O.co2 187  GLU187     -0.2457
    110  OE2       47.4440   36.3390   41.6300 O.co2 187  GLU187     -0.2457
    111  N         53.3740   40.6120   43.7350 N.3   190  HIS190     -0.1241
    112  CA        53.7210   41.1380   42.4190 C.3   190  HIS190      0.1621
    113  C         53.6770   42.6640   42.4920 C.2   190  HIS190      0.2264
    114  O         54.5050   43.3510   41.8900 O.2   190  HIS190     -0.2867
    115  CB        52.7250   40.6880   41.3430 C.3   190  HIS190      0.0745
    116  CG        52.8930   39.2700   40.9030 C.ar  190  HIS190      0.0817
    117  ND1       54.1180   38.7320   40.5630 N.ar  190  HIS190     -0.2268
    118  CD2       51.9820   38.2870   40.7030 C.ar  190  HIS190      0.1154
    119  CE1       53.9540   37.4770   40.1790 C.ar  190  HIS190      0.1986
    120  NE2       52.6680   37.1830   40.2570 N.ar  190  HIS190     -0.2212
    121  N         57.6800   35.4890   39.8030 N.3   196  HIS196     -0.1241
    122  CA        57.5300   34.1420   40.3290 C.3   196  HIS196      0.1621
    123  C         58.8320   33.5030   40.7790 C.2   196  HIS196      0.2264
    124  O         59.9180   33.8670   40.3120 O.2   196  HIS196     -0.2867
    125  CB        56.8520   33.2700   39.2820 C.3   196  HIS196      0.0745
    126  CG        55.4310   33.6480   39.0440 C.ar  196  HIS196      0.0817
    127  ND1       54.7540   33.3390   37.8830 N.ar  196  HIS196     -0.2268
    128  CD2       54.5530   34.3200   39.8240 C.ar  196  HIS196      0.1154
    129  CE1       53.5230   33.8090   37.9560 C.ar  196  HIS196      0.1986
    130  NE2       53.3740   34.4100   39.1250 N.ar  196  HIS196     -0.2212
    131  N         55.0980   31.5470   48.6890 N.3   215  VAL215     -0.1245
    132  CA        53.9200   32.1780   48.1100 C.3   215  VAL215      0.1561
    133  C         54.0150   32.6500   46.6610 C.2   215  VAL215      0.2260
    134  O         53.0050   32.6480   45.9500 O.2   215  VAL215     -0.2867
    135  CB        53.4270   33.3480   48.9950 C.3   215  VAL215      0.0252
    136  CG1       54.3190   34.5760   48.7910 C.3   215  VAL215      0.0019
    137  CG2       51.9670   33.6510   48.6620 C.3   215  VAL215      0.0019
    138  N         55.3460   31.1310   44.2270 N.3   217  TYR217     -0.1228
    139  CA        55.4660   30.0250   43.2900 C.3   217  TYR217      0.1721
    140  C         54.2210   30.1870   42.4140 C.2   217  TYR217      0.2437
    141  O         53.1500   30.5470   42.9060 O.2   217  TYR217     -0.2733
    142  CB        55.4350   28.6820   44.0160 C.3   217  TYR217      0.0547
    143  CG        55.9760   27.5480   43.1800 C.ar  217  TYR217     -0.0200
    144  CD1       57.3300   27.4830   42.8630 C.ar  217  TYR217     -0.0009
    145  CD2       55.1300   26.5620   42.6740 C.ar  217  TYR217     -0.0009
    146  CE1       57.8350   26.4630   42.0550 C.ar  217  TYR217      0.0417
    147  CE2       55.6230   25.5350   41.8690 C.ar  217  TYR217      0.0417
    148  CZ        56.9780   25.4970   41.5630 C.ar  217  TYR217      0.1957
    149  OH        57.4760   24.5030   40.7460 O.3   217  TYR217     -0.2866
    150  N         54.3440   29.9240   41.1060 N.am  218  PRO218     -0.2718
    151  CA        53.2420   30.0530   40.1430 C.3   218  PRO218      0.1535
    152  C         52.0650   29.0840   40.2020 C.2   218  PRO218      0.2598
    153  O         50.9340   29.4510   39.8820 O.2   218  PRO218     -0.2715
    154  CB        53.9610   29.9850   38.8030 C.3   218  PRO218      0.0310
    155  CG        55.0880   29.0690   39.0850 C.3   218  PRO218      0.0237
    156  CD        55.5980   29.5700   40.4160 C.3   218  PRO218      0.0939
    157  N         52.3080   27.8560   40.6240 N.am  219  ILE219     -0.1964
    158  CA        51.2300   26.8950   40.6370 C.3   219  ILE219      0.1727
    159  C         51.0580   26.0590   41.8780 C.2   219  ILE219      0.2616
    160  O         51.9970   25.8280   42.6360 O.2   219  ILE219     -0.2715
    161  CB        51.3730   25.9300   39.4490 C.3   219  ILE219      0.0290
    162  CG1       52.8470   25.5130   39.3070 C.3   219  ILE219      0.0022
    163  CG2       50.8140   26.5990   38.1920 C.3   219  ILE219      0.0023
    164  CD1       53.1070   24.5310   38.1780 C.3   219  ILE219      0.0001
    165  N         49.8210   25.6130   42.0480 N.am  220  ALA220     -0.1963
    166  CA        49.3990   24.7450   43.1320 C.3   220  ALA220      0.1728
    167  C         49.8240   25.0400   44.5720 C.2   220  ALA220      0.2616
    168  O         49.9650   24.1020   45.3600 O.2   220  ALA220     -0.2715
    169  CB        49.7760   23.3030   42.7800 C.3   220  ALA220      0.0334
    170  N         50.0360   26.3000   44.9400 N.am  221  VAL221     -0.1963
    171  CA        50.3820   26.5700   46.3330 C.3   221  VAL221      0.1727
    172  C         49.0450   26.6490   47.0660 C.2   221  VAL221      0.2616
    173  O         48.3680   27.6810   47.1290 O.2   221  VAL221     -0.2715
    174  CB        51.2400   27.8390   46.4830 C.3   221  VAL221      0.0290
    175  CG1       50.9590   28.7740   45.3290 C.3   221  VAL221      0.0023
    176  CG2       50.9930   28.5130   47.8340 C.3   221  VAL221      0.0023
    177  N         48.6750   25.4810   47.5740 N.am  222  SER222     -0.1950
    178  CA        47.4290   25.2360   48.2780 C.3   222  SER222      0.1924
    179  C         47.3240   25.7650   49.6970 C.2   222  SER222      0.2314
    180  O         46.2140   25.9470   50.2060 O.2   222  SER222     -0.2863
    181  CB        47.1800   23.7290   48.3040 C.3   222  SER222      0.2116
    182  OG        48.2370   23.0660   48.9910 O.3   222  SER222     -0.2180
@<TRIPOS>BOND
     1     7     8    1
     2     7     6    1
     3     6     5    1
     4     5     2    1
     5     1     2    1
     6     2     3    1
     7    39    37    1
     8     3     4    2
     9     3     9   am
    10    18    17    1
    11    38    37    1
    12     9    10    1
    13    37    36    1
    14    17    19    1
    15    17    14    1
    16    56    54   ar
    17    56    58   ar
    18    13    14    1
    19    13    11   am
    20    36    33    1
    21    10    11    1
    22    59    58    1
    23    14    15    1
    24    54    53   ar
    25   127   129   ar
    26   127   126   ar
    27    11    12    2
    28    58    57   ar
    29   129   130   ar
    30   164   162    1
    31   163   161    1
    32    16    15    2
    33    33    34    1
    34    33    32    1
    35    15    20   am
    36   154   155    1
    37   154   151    1
    38    31    30    2
    39   126   125    1
    40   126   128   ar
    41    53    52    1
    42    53    55   ar
    43   155   156    1
    44   130   128   ar
    45    34    35    2
    46    49    48    1
    47    49    52    1
    48    49    50    1
    49   125   122    1
    50    57    55   ar
    51   162   161    1
    52   161   158    1
    53    46    45    2
    54    32    30   am
    55    30    29    1
    56    48    42   am
    57    20    21    1
    58   121   122    1
    59   153   152    2
    60    50    51    2
    61   151   152    1
    62   151   150    1
    63   119   120   ar
    64   119   117   ar
    65   152   157   am
    66   120   118   ar
    67   124   123    2
    68   122   123    1
    69   156   150    1
    70    28    29    1
    71    28    22   am
    72   117   116   ar
    73   157   158    1
    74   158   159    1
    75    45    47   am
    76    45    44    1
    77   118   116   ar
    78   149   148    1
    79    42    41    1
    80    42    43    2
    81    21    22    1
    82    21    24    1
    83   116   115    1
    84    22    23    2
    85    41    44    1
    86    41    40    1
    87   150   140   am
    88   109   108   ar
    89   115   112    1
    90   148   147   ar
    91   148   146   ar
    92   110   108   ar
    93   101   100   ar
    94   101    99   ar
    95   147   145   ar
    96   108   107    1
    97   159   165   am
    98   159   160    2
    99   114   113    2
   100   165   166    1
   101   146   144   ar
   102    27    25    1
   103    24    25    1
   104    25    26    1
   105   140   141    2
   106   140   139    1
   107   112   113    1
   108   112   111    1
   109   100    98   ar
   110   145   143   ar
   111    99    97   ar
   112   169   166    1
   113   144   143   ar
   114   107   106    1
   115   166   167    1
   116   143   142    1
   117   139   142    1
   118   139   138    1
   119   106   103    1
   120   105   104    2
   121    98    97   ar
   122   103   104    1
   123   103   102    1
   124    97    96    1
   125    90    89    1
   126    95    94    2
   127   167   170   am
   128   167   168    2
   129   102    94   am
   130   170   171    1
   131    94    93    1
   132    66    64    1
   133    96    93    1
   134   175   174    1
   135    91    89    1
   136    88    87    2
   137    89    86    1
   138   134   133    2
   139    93    92    1
   140    86    87    1
   141    86    85    1
   142   171   174    1
   143   171   172    1
   144   174   176    1
   145    67    65    1
   146   133   132    1
   147    64    65    1
   148    64    61    1
   149    60    61    1
   150   172   173    2
   151   172   177   am
   152    61    62    1
   153    85    79   am
   154   177   178    1
   155    80    79    2
   156    75    74   ar
   157    76    74   ar
   158   132   131    1
   159   132   135    1
   160    79    78    1
   161   178   181    1
   162   178   179    1
   163    74    73    1
   164   181   182    1
   165    71    70    2
   166   137   135    1
   167    72    73    1
   168    72    69    1
   169   136   135    1
   170    62    63    2
   171    70    69    1
   172    81    78    1
   173    81    82    1
   174    78    77    1
   175    69    68    1
   176   179   180    2
   177    83    82    1
   178    82    84    1
