@<TRIPOS>MOLECULE
tmp/2fvaA01.pdb
 201 190 0 0 0
SMALL
GASTEIGER

@<TRIPOS>ATOM
      1  N          4.0270   -3.7790   -2.2920 N.3    13  VAL13      -0.1245
      2  CA         5.3310   -3.6420   -1.6600 C.3    13  VAL13       0.1561
      3  C          6.2830   -4.7300   -2.1410 C.2    13  VAL13       0.2260
      4  O          7.4410   -4.4580   -2.4600 O.2    13  VAL13      -0.2867
      5  CB         5.1830   -3.7300   -0.1360 C.3    13  VAL13       0.0252
      6  CG1        6.5520   -3.5410    0.5220 C.3    13  VAL13       0.0019
      7  CG2        4.2280   -2.6370    0.3490 C.3    13  VAL13       0.0019
      8  N          7.9610   -4.4450   -5.4000 N.3    16  LYS16      -0.1231
      9  CA         9.0610   -3.4860   -5.4260 C.3    16  LYS16       0.1693
     10  C         10.3910   -4.2090   -5.5910 C.2    16  LYS16       0.2591
     11  O         11.2670   -3.7620   -6.3340 O.2    16  LYS16      -0.2718
     12  CB         9.0760   -2.6760   -4.1290 C.3    16  LYS16       0.0285
     13  CG         7.6980   -2.0550   -3.9000 C.3    16  LYS16       0.0035
     14  CD         7.4870   -0.8940   -4.8730 C.3    16  LYS16       0.0206
     15  CE         8.3190    0.3060   -4.4220 C.3    16  LYS16       0.1093
     16  NZ         7.7710    1.5490   -5.0340 N.3    16  LYS16      -0.1314
     17  N         10.5440   -5.3310   -4.8910 N.am   17  LEU17      -0.1980
     18  CA        11.7740   -6.1090   -4.9660 C.3    17  LEU17       0.1596
     19  C         11.4710   -7.5610   -5.3220 C.2    17  LEU17       0.2287
     20  O         12.2680   -8.4580   -5.0440 O.2    17  LEU17      -0.2864
     21  CB        12.5150   -6.0540   -3.6310 C.3    17  LEU17       0.0297
     22  CG        11.5880   -6.5410   -2.5130 C.3    17  LEU17       0.0022
     23  CD1       12.4250   -6.9440   -1.2960 C.3    17  LEU17       0.0001
     24  CD2       10.6210   -5.4210   -2.1220 C.3    17  LEU17       0.0001
     25  N          4.7390   -0.7030    6.4340 N.3    31  PHE31      -0.1227
     26  CA         5.3570   -0.6390    5.1160 C.3    31  PHE31       0.1736
     27  C          6.8770   -0.6050    5.2390 C.2    31  PHE31       0.2596
     28  O          7.5850   -1.2460    4.4640 O.2    31  PHE31      -0.2718
     29  CB         4.8780    0.6130    4.3760 C.3    31  PHE31       0.0547
     30  CG         3.4530    0.4120    3.9180 C.ar   31  PHE31      -0.0202
     31  CD1        3.1960   -0.1990    2.6840 C.ar   31  PHE31      -0.0042
     32  CD2        2.3910    0.8360    4.7250 C.ar   31  PHE31      -0.0042
     33  CE1        1.8750   -0.3860    2.2580 C.ar   31  PHE31      -0.0003
     34  CE2        1.0720    0.6500    4.2990 C.ar   31  PHE31      -0.0003
     35  CZ         0.8120    0.0380    3.0650 C.ar   31  PHE31      -0.0000
     36  N          7.3710    0.1440    6.2190 N.am   32  SER32      -0.1938
     37  CA         8.8090    0.2560    6.4300 C.3    32  SER32       0.2055
     38  C          9.4260   -1.1170    6.6600 C.2    32  SER32       0.2643
     39  O          8.8330   -1.9750    7.3120 O.2    32  SER32      -0.2714
     40  CB         9.0890    1.1500    7.6400 C.3    32  SER32       0.2130
     41  OG        10.4780    1.1220    7.9370 O.3    32  SER32      -0.2179
     42  N         10.6220   -1.3210    6.1140 N.am   33  LYS33      -0.1963
     43  CA        11.3110   -2.5970    6.2640 C.3    33  LYS33       0.1728
     44  C         12.8230   -2.4010    6.1980 C.2    33  LYS33       0.2616
     45  O         13.3100   -1.4650    5.5640 O.2    33  LYS33      -0.2715
     46  CB        10.8700   -3.5620    5.1630 C.3    33  LYS33       0.0311
     47  CG        11.4580   -4.9480    5.4320 C.3    33  LYS33       0.0038
     48  CD        10.9270   -5.9390    4.3940 C.3    33  LYS33       0.0206
     49  CE        11.4880   -7.3320    4.6840 C.3    33  LYS33       0.1093
     50  NZ        12.9580   -7.3360    4.4400 N.3    33  LYS33      -0.1314
     51  N         13.5600   -3.2900    6.8570 N.am   34  LEU34      -0.1963
     52  CA        15.0150   -3.2010    6.8680 C.3    34  LEU34       0.1728
     53  C         15.5730   -3.4040    5.4660 C.2    34  LEU34       0.2617
     54  O         15.1980   -4.3440    4.7660 O.2    34  LEU34      -0.2715
     55  CB        15.5920   -4.2630    7.8070 C.3    34  LEU34       0.0311
     56  CG        17.1200   -4.1830    7.7870 C.3    34  LEU34       0.0022
     57  CD1       17.5690   -2.7840    8.2140 C.3    34  LEU34       0.0001
     58  CD2       17.6970   -5.2200    8.7560 C.3    34  LEU34       0.0001
     59  N         16.4790   -2.5170    5.0620 N.am   35  GLY35      -0.1940
     60  CA        17.0840   -2.6070    3.7370 C.3    35  GLY35       0.2014
     61  C         17.0170   -1.2650    3.0170 C.2    35  GLY35       0.2639
     62  O         15.9840   -0.9050    2.4530 O.2    35  GLY35      -0.2714
     63  N         18.1240   -0.5300    3.0390 N.am   36  ALA36      -0.1963
     64  CA        18.1790    0.7720    2.3840 C.3    36  ALA36       0.1728
     65  C         17.2540    1.7630    3.0850 C.2    36  ALA36       0.2616
     66  O         17.6220    2.9150    3.3110 O.2    36  ALA36      -0.2715
     67  CB        17.7660    0.6360    0.9180 C.3    36  ALA36       0.0334
     68  N         16.0520    1.3080    3.4200 N.am   37  ASP37      -0.1957
     69  CA        15.0840    2.1620    4.0950 C.3    37  ASP37       0.1840
     70  C         14.8280    3.4280    3.2850 C.2    37  ASP37       0.2623
     71  O         14.5900    4.4980    3.8450 O.2    37  ASP37      -0.2715
     72  CB        15.6010    2.5390    5.4850 C.3    37  ASP37       0.1450
     73  CG        15.5370    1.3300    6.4110 C.2    37  ASP37       0.3671
     74  OD1       14.8490    0.3820    6.0700 O.co2  37  ASP37      -0.2456
     75  OD2       16.1800    1.3690    7.4480 O.co2  37  ASP37      -0.2456
     76  N         14.8810    3.3000    1.9640 N.am   38  SER38      -0.1936
     77  CA        14.6530    4.4410    1.0850 C.3    38  SER38       0.2055
     78  C         13.1650    4.7650    1.0040 C.2    38  SER38       0.2643
     79  O         12.3180    3.9170    1.2850 O.2    38  SER38      -0.2714
     80  CB        15.1860    4.1360   -0.3160 C.3    38  SER38       0.2130
     81  OG        14.4610    3.1570   -0.9780 O.3    38  SER38      -0.2179
     82  N         12.8540    5.9980    0.6150 N.am   39  LEU39      -0.1963
     83  CA        11.4620    6.4230    0.5000 C.3    39  LEU39       0.1728
     84  C         10.8900    6.0140   -0.8480 C.2    39  LEU39       0.2616
     85  O         11.5090    6.2310   -1.8910 O.2    39  LEU39      -0.2715
     86  CB        11.3700    7.9420    0.6580 C.3    39  LEU39       0.0311
     87  CG        11.4870    8.3120    2.1390 C.3    39  LEU39       0.0022
     88  CD1       10.2320    7.8500    2.8840 C.3    39  LEU39       0.0001
     89  CD2       12.7190    7.6240    2.7380 C.3    39  LEU39       0.0001
     90  N          9.7000    5.4200   -0.8260 N.am   40  ASP40      -0.1957
     91  CA         9.0500    4.9810   -2.0570 C.3    40  ASP40       0.1840
     92  C          7.5630    5.3140   -2.0260 C.2    40  ASP40       0.2622
     93  O          6.7550    4.6550   -2.6820 O.2    40  ASP40      -0.2715
     94  CB         9.2350    3.4730   -2.2360 C.3    40  ASP40       0.1450
     95  CG        10.6770    3.1670   -2.6250 C.2    40  ASP40       0.3671
     96  OD1       11.4050    4.1020   -2.9110 O.co2  40  ASP40      -0.2456
     97  OD2       11.0330    1.9990   -2.6320 O.co2  40  ASP40      -0.2456
     98  N          7.2060    6.3400   -1.2620 N.am   41  THR41      -0.1951
     99  CA         5.8120    6.7510   -1.1520 C.3    41  THR41       0.1897
    100  C          5.2620    7.1480   -2.5190 C.2    41  THR41       0.2313
    101  O          4.1390    6.7930   -2.8700 O.2    41  THR41      -0.2863
    102  CB         5.6890    7.9320   -0.1870 C.3    41  THR41       0.1794
    103  OG1        6.3890    7.6350    1.0130 O.3    41  THR41      -0.2208
    104  CG2        4.2140    8.1820    0.1300 C.3    41  THR41       0.0378
    105  N          5.0490    3.9130   -4.3920 N.3    44  ILE44      -0.1231
    106  CA         4.0790    3.0380   -3.7560 C.3    44  ILE44       0.1692
    107  C          2.6620    3.5470   -3.9350 C.2    44  ILE44       0.2591
    108  O          1.7570    2.7880   -4.2780 O.2    44  ILE44      -0.2718
    109  CB         4.3960    2.9240   -2.2530 C.3    44  ILE44       0.0266
    110  CG1        5.7000    2.1450   -2.0580 C.3    44  ILE44       0.0019
    111  CG2        3.2490    2.1950   -1.5420 C.3    44  ILE44       0.0020
    112  CD1        5.4040    0.6430   -2.0140 C.3    44  ILE44       0.0001
    113  N          2.4760    4.8430   -3.7110 N.am   45  VAL45      -0.1980
    114  CA         1.1520    5.4420   -3.8230 C.3    45  VAL45       0.1595
    115  C          0.6030    5.2840   -5.2330 C.2    45  VAL45       0.2287
    116  O         -0.5650    4.9440   -5.4210 O.2    45  VAL45      -0.2864
    117  CB         1.2220    6.9300   -3.4640 C.3    45  VAL45       0.0276
    118  CG1        2.0740    7.6630   -4.5020 C.3    45  VAL45       0.0022
    119  CG2       -0.1900    7.5190   -3.4530 C.3    45  VAL45       0.0022
    120  N         -0.6110    1.6880   -5.9700 N.3    48  LEU48      -0.1245
    121  CA        -1.9350    1.4010   -5.4250 C.3    48  LEU48       0.1561
    122  C         -3.0110    2.1200   -6.2380 C.2    48  LEU48       0.2260
    123  O         -4.0110    1.5180   -6.6250 O.2    48  LEU48      -0.2867
    124  CB        -2.0050    1.8750   -3.9700 C.3    48  LEU48       0.0270
    125  CG        -0.9100    1.1810   -3.1580 C.3    48  LEU48       0.0019
    126  CD1       -0.6300    1.9870   -1.8870 C.3    48  LEU48       0.0001
    127  CD2       -1.3600   -0.2290   -2.7790 C.3    48  LEU48       0.0001
    128  N         -7.9030    4.2830   -8.5530 N.3    54  ILE54      -0.1245
    129  CA        -8.5860    5.3320   -7.8030 C.3    54  ILE54       0.1561
    130  C         -7.8310    6.6470   -7.9100 C.2    54  ILE54       0.2260
    131  O         -6.9970    6.8280   -8.7980 O.2    54  ILE54      -0.2867
    132  CB        -8.7000    4.9220   -6.3320 C.3    54  ILE54       0.0252
    133  CG1       -7.3180    4.5300   -5.8030 C.3    54  ILE54       0.0019
    134  CG2       -9.6530    3.7330   -6.2040 C.3    54  ILE54       0.0019
    135  CD1       -7.4260    4.1410   -4.3280 C.3    54  ILE54       0.0001
    136  N         -5.8610    8.8600   -5.1750 N.3    56  VAL56      -0.1245
    137  CA        -5.3760    9.1680   -3.8370 C.3    56  VAL56       0.1561
    138  C         -4.4360   10.3680   -3.8710 C.2    56  VAL56       0.2260
    139  O         -3.4700   10.3920   -4.6320 O.2    56  VAL56      -0.2867
    140  CB        -4.6360    7.9570   -3.2600 C.3    56  VAL56       0.0252
    141  CG1       -3.3270    7.7440   -4.0240 C.3    56  VAL56       0.0019
    142  CG2       -4.3290    8.2030   -1.7810 C.3    56  VAL56       0.0019
    143  N         -3.0520   12.3750    1.5520 N.3    60  LYS60      -0.1231
    144  CA        -3.6270   11.1780    2.1480 C.3    60  LYS60       0.1693
    145  C         -2.5760   10.0790    2.2630 C.2    60  LYS60       0.2592
    146  O         -2.6530    9.2190    3.1390 O.2    60  LYS60      -0.2718
    147  CB        -4.7980   10.6790    1.3000 C.3    60  LYS60       0.0285
    148  CG        -5.6800    9.7510    2.1390 C.3    60  LYS60       0.0035
    149  CD        -6.7120   10.5810    2.9090 C.3    60  LYS60       0.0206
    150  CE        -7.6370    9.6490    3.6880 C.3    60  LYS60       0.1093
    151  NZ        -8.6220   10.4590    4.4580 N.3    60  LYS60      -0.1314
    152  N         -1.5940   10.1100    1.3660 N.am   61  ALA61      -0.1966
    153  CA        -0.5320    9.1090    1.3750 C.3    61  ALA61       0.1728
    154  C          0.7520    9.6970    1.9400 C.2    61  ALA61       0.2616
    155  O          1.8370    9.4980    1.3880 O.2    61  ALA61      -0.2715
    156  CB        -0.2810    8.6060   -0.0480 C.3    61  ALA61       0.0334
    157  N          0.6300   10.4290    3.0450 N.am   62  GLN62      -0.1977
    158  CA         1.7890   11.0460    3.6750 C.3    62  GLN62       0.1601
    159  C          1.9930   10.5040    5.0810 C.2    62  GLN62       0.2287
    160  O          3.1250   10.3550    5.5450 O.2    62  GLN62      -0.2864
    161  CB         1.5990   12.5660    3.7340 C.3    62  GLN62       0.0394
    162  CG         0.3780   12.8940    4.5970 C.3    62  GLN62       0.0908
    163  CD         0.0860   14.3900    4.5410 C.2    62  GLN62       0.2608
    164  OE1        0.6260   15.0970    3.6900 O.2    62  GLN62      -0.2717
    165  NE2       -0.7460   14.9160    5.3980 N.am   62  GLN62      -0.0878
    166  N          0.0690    7.5530    6.4250 N.3    64  ILE64      -0.1245
    167  CA        -0.8020    6.3890    6.5060 C.3    64  ILE64       0.1561
    168  C         -0.1750    5.3080    7.3830 C.2    64  ILE64       0.2260
    169  O          0.9980    4.9680    7.2210 O.2    64  ILE64      -0.2867
    170  CB        -1.0550    5.8240    5.1060 C.3    64  ILE64       0.0252
    171  CG1       -1.7840    6.8730    4.2620 C.3    64  ILE64       0.0019
    172  CG2       -1.9160    4.5620    5.2100 C.3    64  ILE64       0.0019
    173  CD1       -3.1300    7.2090    4.9070 C.3    64  ILE64       0.0001
    174  N         -3.8120    1.3750    5.2950 N.3    70  ALA70      -0.1245
    175  CA        -3.7610    1.6400    3.8630 C.3    70  ALA70       0.1562
    176  C         -4.9420    0.9920    3.1520 C.2    70  ALA70       0.2260
    177  O         -5.6020    1.6220    2.3250 O.2    70  ALA70      -0.2867
    178  CB        -2.4530    1.0950    3.2800 C.3    70  ALA70       0.0290
    179  N         -8.1850    2.8280    3.9640 N.3    73  VAL73      -0.1231
    180  CA        -8.2690    4.1010    3.2600 C.3    73  VAL73       0.1692
    181  C         -8.6560    3.8830    1.8010 C.2    73  VAL73       0.2591
    182  O         -9.4930    4.6040    1.2560 O.2    73  VAL73      -0.2718
    183  CB        -6.9250    4.8270    3.3330 C.3    73  VAL73       0.0266
    184  CG1       -6.9840    6.0990    2.4840 C.3    73  VAL73       0.0020
    185  CG2       -6.6220    5.1980    4.7860 C.3    73  VAL73       0.0020
    186  N         -8.0360    2.8920    1.1730 N.am   74  ILE74      -0.1980
    187  CA        -8.3180    2.5880   -0.2260 C.3    74  ILE74       0.1595
    188  C         -9.7730    2.1760   -0.4050 C.2    74  ILE74       0.2287
    189  O        -10.4350    2.5930   -1.3560 O.2    74  ILE74      -0.2864
    190  CB        -7.3970    1.4770   -0.7180 C.3    74  ILE74       0.0276
    191  CG1       -5.9830    2.0280   -0.9190 C.3    74  ILE74       0.0022
    192  CG2       -7.9220    0.9190   -2.0440 C.3    74  ILE74       0.0022
    193  CD1       -4.9800    0.8730   -0.9480 C.3    74  ILE74       0.0001
    194  N        -11.7500    5.0730   -0.9840 N.3    77  LEU77      -0.1245
    195  CA       -11.4770    5.6790   -2.2850 C.3    77  LEU77       0.1561
    196  C        -12.1470    4.8800   -3.3970 C.2    77  LEU77       0.2260
    197  O        -12.6550    5.4470   -4.3640 O.2    77  LEU77      -0.2867
    198  CB        -9.9730    5.7440   -2.5270 C.3    77  LEU77       0.0270
    199  CG        -9.3450    6.7670   -1.5760 C.3    77  LEU77       0.0019
    200  CD1       -7.8200    6.6340   -1.6200 C.3    77  LEU77       0.0001
    201  CD2       -9.7470    8.1790   -2.0080 C.3    77  LEU77       0.0001
@<TRIPOS>BOND
     1   131   130    2
     2   128   129    1
     3   130   129    1
     4   129   132    1
     5   123   122    2
     6    11    10    2
     7   132   134    1
     8   132   133    1
     9   122   121    1
    10   120   121    1
    11   133   135    1
    12    10     9    1
    13    10    17   am
    14     9     8    1
    15     9    12    1
    16   121   124    1
    17   116   115    2
    18    19    20    2
    19    19    18    1
    20   115   114    1
    21   136   137    1
    22    16    15    1
    23    18    17    1
    24    18    21    1
    25    14    15    1
    26    14    13    1
    27   139   138    2
    28   118   117    1
    29   105   106    1
    30   197   196    2
    31   108   107    2
    32    12    13    1
    33   141   140    1
    34   124   125    1
    35   107   106    1
    36   107   113   am
    37   138   137    1
    38   137   140    1
    39   114   113    1
    40   114   117    1
    41   106   109    1
    42    21    22    1
    43   117   119    1
    44   196   195    1
    45   140   142    1
    46   125   127    1
    47   125   126    1
    48    96    95   ar
    49   101   100    2
    50    93    92    2
    51    97    95   ar
    52    95    94    1
    53   198   195    1
    54   198   199    1
    55   100    99    1
    56    22    24    1
    57    22    23    1
    58     4     3    2
    59     1     2    1
    60   195   194    1
    61   109   110    1
    62   109   111    1
    63    94    91    1
    64     3     2    1
    65   110   112    1
    66    91    92    1
    67    91    90    1
    68   192   190    1
    69    92    98   am
    70   201   199    1
    71    85    84    2
    72     2     5    1
    73   200   199    1
    74   189   188    2
    75    98    99    1
    76    99   102    1
    77    81    80    1
    78   193   191    1
    79   191   190    1
    80    84    90   am
    81    84    83    1
    82   190   187    1
    83   188   187    1
    84    80    77    1
    85   187   186    1
    86   102   104    1
    87   102   103    1
    88     5     7    1
    89     5     6    1
    90   156   153    1
    91    83    82    1
    92    83    86    1
    93    82    78   am
    94    86    87    1
    95    67    64    1
    96    78    77    1
    97    78    79    2
    98    77    76    1
    99   186   181   am
   100   182   181    2
   101   147   148    1
   102   147   144    1
   103   152   153    1
   104   152   145   am
   105   153   154    1
   106   155   154    2
   107   143   144    1
   108   181   180    1
   109   154   157   am
   110    76    70   am
   111   148   149    1
   112    87    89    1
   113    87    88    1
   114   144   145    1
   115    33    31   ar
   116    33    35   ar
   117   145   146    2
   118   177   176    2
   119    64    63    1
   120    64    65    1
   121    62    61    2
   122   184   183    1
   123    31    30   ar
   124   149   150    1
   125    61    63   am
   126    61    60    1
   127   157   158    1
   128    35    34   ar
   129    65    66    2
   130    65    68   am
   131   176   175    1
   132   180   183    1
   133   180   179    1
   134   178   175    1
   135    70    71    2
   136    70    69    1
   137   183   185    1
   138    68    69    1
   139   158   161    1
   140   158   159    1
   141   150   151    1
   142   164   163    2
   143   161   162    1
   144    60    59    1
   145   175   174    1
   146    30    29    1
   147    30    32   ar
   148    69    72    1
   149   171   173    1
   150   171   170    1
   151    34    32   ar
   152    29    26    1
   153    48    49    1
   154    48    47    1
   155    50    49    1
   156    28    27    2
   157   163   162    1
   158   163   165   am
   159    54    53    2
   160    59    53   am
   161   159   160    2
   162   170   172    1
   163   170   167    1
   164    26    27    1
   165    26    25    1
   166    46    47    1
   167    46    43    1
   168    27    36   am
   169    53    52    1
   170    72    73    1
   171    45    44    2
   172    74    73   ar
   173    42    43    1
   174    42    38   am
   175    44    43    1
   176    44    51   am
   177    36    37    1
   178    73    75   ar
   179   166   167    1
   180    37    38    1
   181    37    40    1
   182   167   168    1
   183    38    39    2
   184    51    52    1
   185    52    55    1
   186   169   168    2
   187    40    41    1
   188    56    55    1
   189    56    57    1
   190    56    58    1
