@<TRIPOS>MOLECULE
tmp/2fvcB00.pdb
 189 182 0 0 0
SMALL
GASTEIGER

@<TRIPOS>ATOM
      1  N         -1.8980   47.0340   -6.7440 N.3   193  PHE193     -0.1241
      2  CA        -2.6700   48.1000   -7.3670 C.3   193  PHE193      0.1605
      3  C         -1.8430   49.1680   -8.0900 C.2   193  PHE193      0.2264
      4  O         -2.3990   50.0520   -8.7340 O.2   193  PHE193     -0.2867
      5  CB        -3.6180   48.7270   -6.3320 C.3   193  PHE193      0.0534
      6  CG        -4.7370   47.8020   -5.8950 C.ar  193  PHE193     -0.0203
      7  CD1       -5.6740   47.3380   -6.8160 C.ar  193  PHE193     -0.0042
      8  CD2       -4.8510   47.3980   -4.5690 C.ar  193  PHE193     -0.0042
      9  CE1       -6.7120   46.4840   -6.4170 C.ar  193  PHE193     -0.0003
     10  CE2       -5.8840   46.5440   -4.1580 C.ar  193  PHE193     -0.0003
     11  CZ        -6.8130   46.0880   -5.0800 C.ar  193  PHE193     -0.0000
     12  N         -0.4680   48.1670  -14.0460 N.3   196  SER196     -0.1203
     13  CA        -1.4620   48.1300  -15.1050 C.3   196  SER196      0.2005
     14  C         -1.4800   46.6350  -15.4250 C.2   196  SER196      0.2460
     15  O         -0.6760   45.8810  -14.8750 O.2   196  SER196     -0.2732
     16  CB        -0.9730   48.9140  -16.3240 C.3   196  SER196      0.2103
     17  OG         0.2100   48.3390  -16.8560 O.3   196  SER196     -0.2182
     18  N         -2.3870   46.1800  -16.3020 N.am  197  PRO197     -0.2728
     19  CA        -2.3960   44.7420  -16.6070 C.3   197  PRO197      0.1401
     20  C         -1.0440   44.2450  -17.1300 C.2   197  PRO197      0.2269
     21  O         -0.5710   43.1800  -16.7410 O.2   197  PRO197     -0.2865
     22  CB        -3.4930   44.6170  -17.6670 C.3   197  PRO197      0.0296
     23  CG        -4.4420   45.7320  -17.3050 C.3   197  PRO197      0.0237
     24  CD        -3.5010   46.8740  -16.9750 C.3   197  PRO197      0.0939
     25  N          1.6270   44.0270  -14.4130 N.3   200  ARG200     -0.1245
     26  CA         1.3860   42.9190  -13.4940 C.3   200  ARG200      0.1563
     27  C          1.9410   41.6390  -14.1170 C.2   200  ARG200      0.2260
     28  O          2.5660   40.8290  -13.4360 O.2   200  ARG200     -0.2867
     29  CB        -0.1160   42.7620  -13.2130 C.3   200  ARG200      0.0307
     30  CG        -0.4490   41.6840  -12.1770 C.3   200  ARG200      0.0489
     31  CD        -1.9520   41.4370  -12.0820 C.3   200  ARG200      0.2205
     32  NE        -2.2830   40.3080  -11.2110 N.pl3 200  ARG200     -0.0865
     33  CZ        -2.3910   40.3840   -9.8880 C.cat 200  ARG200      0.5346
     34  NH1       -2.2000   41.5400   -9.2640 N.pl3 200  ARG200      0.1354
     35  NH2       -2.6790   39.3000   -9.1820 N.pl3 200  ARG200      0.1354
     36  N         -9.7870   48.9020    1.0010 N.3   288  SER288     -0.1217
     37  CA        -8.7360   48.3180    0.1740 C.3   288  SER288      0.1889
     38  C         -7.3700   48.3550    0.8450 C.2   288  SER288      0.2288
     39  O         -6.6870   47.3300    0.9410 O.2   288  SER288     -0.2866
     40  CB        -8.6490   49.0360   -1.1770 C.3   288  SER288      0.2089
     41  OG        -7.6490   48.4420   -1.9970 O.3   288  SER288     -0.2183
     42  N         -3.4420   42.1970   -3.6000 N.3   316  ASN316     -0.1225
     43  CA        -4.4560   43.1610   -4.0190 C.3   316  ASN316      0.1785
     44  C         -5.6080   42.9490   -3.0380 C.2   316  ASN316      0.2598
     45  O         -6.4260   42.0550   -3.2230 O.2   316  ASN316     -0.2718
     46  CB        -4.9340   42.8880   -5.4530 C.3   316  ASN316      0.1169
     47  CG        -3.8600   43.1550   -6.4950 C.2   316  ASN316      0.2627
     48  OD1       -2.8430   42.4680   -6.5440 O.2   316  ASN316     -0.2716
     49  ND2       -4.0840   44.1620   -7.3340 N.am  316  ASN316     -0.0877
     50  N         -5.6620   43.7520   -1.9800 N.am  317  GLY317     -0.1942
     51  CA        -6.7160   43.5730   -0.9940 C.3   317  GLY317      0.2014
     52  C         -6.6200   42.1770   -0.3940 C.2   317  GLY317      0.2639
     53  O         -5.5670   41.7900    0.1090 O.2   317  GLY317     -0.2714
     54  N         -7.7050   41.4090   -0.4570 N.am  318  ASP318     -0.1957
     55  CA        -7.7060   40.0530    0.0910 C.3   318  ASP318      0.1840
     56  C         -7.1870   39.0060   -0.9030 C.2   318  ASP318      0.2622
     57  O         -7.1020   37.8230   -0.5720 O.2   318  ASP318     -0.2715
     58  CB        -9.1230   39.6760    0.5440 C.3   318  ASP318      0.1450
     59  CG       -10.0850   39.4880   -0.6250 C.2   318  ASP318      0.3671
     60  OD1       -9.8700   40.1090   -1.6870 O.co2 318  ASP318     -0.2456
     61  OD2      -11.0630   38.7270   -0.4770 O.co2 318  ASP318     -0.2456
     62  N         -6.8410   39.4400   -2.1160 N.am  319  ASP319     -0.1971
     63  CA        -6.3340   38.5270   -3.1390 C.3   319  ASP319      0.1709
     64  C         -4.8230   38.4020   -2.9750 C.2   319  ASP319      0.2293
     65  O         -4.0870   39.3950   -3.0370 O.2   319  ASP319     -0.2864
     66  CB        -6.6790   39.0430   -4.5400 C.3   319  ASP319      0.1436
     67  CG        -6.3910   38.0200   -5.6310 C.2   319  ASP319      0.3671
     68  OD1       -5.2040   37.7180   -5.8740 O.co2 319  ASP319     -0.2456
     69  OD2       -7.3580   37.5170   -6.2480 O.co2 319  ASP319     -0.2456
     70  N         -6.4200   37.5340   -8.7280 N.3   366  CYS366     -0.1221
     71  CA        -7.2400   38.6590   -9.1660 C.3   366  CYS366      0.1808
     72  C         -8.0660   38.1630  -10.3480 C.2   366  CYS366      0.2602
     73  O         -8.2340   38.8560  -11.3540 O.2   366  CYS366     -0.2717
     74  CB        -6.3830   39.8630   -9.5710 C.3   366  CYS366      0.0970
     75  SG        -5.7420   40.8000   -8.1500 S.3   366  CYS366     -0.0800
     76  N         -8.5480   36.9300  -10.2110 N.am  367  SER367     -0.1938
     77  CA        -9.3860   36.2790  -11.2110 C.3   367  SER367      0.2055
     78  C         -8.7510   36.2030  -12.5910 C.2   367  SER367      0.2643
     79  O         -9.4510   35.9960  -13.5790 O.2   367  SER367     -0.2714
     80  CB       -10.7240   37.0170  -11.3210 C.3   367  SER367      0.2130
     81  OG       -11.3860   37.0670  -10.0700 O.3   367  SER367     -0.2179
     82  N         -7.4320   36.3430  -12.6600 N.am  368  SER368     -0.1949
     83  CA        -6.7540   36.3310  -13.9480 C.3   368  SER368      0.1924
     84  C         -5.5210   35.4370  -13.9950 C.2   368  SER368      0.2314
     85  O         -5.0150   34.9900  -12.9660 O.2   368  SER368     -0.2863
     86  CB        -6.3440   37.7590  -14.3140 C.3   368  SER368      0.2116
     87  OG        -7.4210   38.6580  -14.1070 O.3   368  SER368     -0.2180
     88  N         -2.3210   39.3130  -19.9660 N.3   384  LEU384     -0.1245
     89  CA        -3.2280   38.8620  -18.9210 C.3   384  LEU384      0.1561
     90  C         -4.6200   38.5830  -19.4730 C.2   384  LEU384      0.2260
     91  O         -5.1650   39.3670  -20.2520 O.2   384  LEU384     -0.2867
     92  CB        -3.3160   39.9150  -17.8190 C.3   384  LEU384      0.0270
     93  CG        -3.8440   39.4470  -16.4640 C.3   384  LEU384      0.0019
     94  CD1       -2.7580   38.6640  -15.7360 C.3   384  LEU384      0.0001
     95  CD2       -4.2540   40.6540  -15.6390 C.3   384  LEU384      0.0001
     96  N         -8.4390   35.8990  -18.5990 N.3   386  ARG386     -0.1245
     97  CA        -9.2480   35.2380  -17.5810 C.3   386  ARG386      0.1563
     98  C        -10.3700   34.4600  -18.2550 C.2   386  ARG386      0.2260
     99  O        -10.6200   34.6230  -19.4480 O.2   386  ARG386     -0.2867
    100  CB        -9.8740   36.2600  -16.6250 C.3   386  ARG386      0.0307
    101  CG       -10.8710   37.2200  -17.2880 C.3   386  ARG386      0.0489
    102  CD       -11.7620   37.8940  -16.2470 C.3   386  ARG386      0.2205
    103  NE       -12.7090   36.9510  -15.6550 N.pl3 386  ARG386     -0.0865
    104  CZ       -13.3180   37.1320  -14.4870 C.cat 386  ARG386      0.5346
    105  NH1      -13.0820   38.2230  -13.7750 N.pl3 386  ARG386      0.1354
    106  NH2      -14.1650   36.2220  -14.0280 N.pl3 386  ARG386      0.1354
    107  N        -14.9820   48.3230  -18.8060 N.3   410  GLY410     -0.1210
    108  CA       -13.8390   48.0650  -17.9490 C.3   410  GLY410      0.1956
    109  C        -13.0870   46.8350  -18.4280 C.2   410  GLY410      0.2611
    110  O        -11.8530   46.7990  -18.4050 O.2   410  GLY410     -0.2717
    111  N        -13.8280   45.8250  -18.8780 N.am  411  ASN411     -0.1974
    112  CA       -13.2120   44.5940  -19.3640 C.3   411  ASN411      0.1688
    113  C        -12.4460   44.7840  -20.6710 C.2   411  ASN411      0.2292
    114  O        -11.4040   44.1640  -20.8770 O.2   411  ASN411     -0.2864
    115  CB       -14.2640   43.4850  -19.5170 C.3   411  ASN411      0.1181
    116  CG       -14.6020   42.8230  -18.1920 C.2   411  ASN411      0.2629
    117  OD1      -13.7210   42.6130  -17.3620 O.2   411  ASN411     -0.2716
    118  ND2      -15.8710   42.4770  -17.9930 N.am  411  ASN411     -0.0877
    119  N         -9.1060   46.6720  -19.5890 N.3   414  MET414     -0.1230
    120  CA        -8.1480   45.8260  -18.8900 C.3   414  MET414      0.1702
    121  C         -7.7390   44.5510  -19.6270 C.2   414  MET414      0.2592
    122  O         -6.6110   44.0820  -19.4760 O.2   414  MET414     -0.2718
    123  CB        -8.7110   45.4810  -17.5170 C.3   414  MET414      0.0401
    124  CG        -9.0230   46.7140  -16.6730 C.3   414  MET414      0.0596
    125  SD        -7.5400   47.5580  -16.0860 S.3   414  MET414     -0.1393
    126  CE        -7.2040   46.6250  -14.6010 C.3   414  MET414      0.0692
    127  N         -8.6520   44.0000  -20.4220 N.am  415  TYR415     -0.1976
    128  CA        -8.3890   42.7730  -21.1700 C.3   415  TYR415      0.1639
    129  C         -8.3610   42.9800  -22.6880 C.2   415  TYR415      0.2290
    130  O         -8.6510   42.0610  -23.4510 O.2   415  TYR415     -0.2864
    131  CB        -9.4430   41.7200  -20.8240 C.3   415  TYR415      0.0560
    132  CG        -9.3870   41.2460  -19.3910 C.ar  415  TYR415     -0.0198
    133  CD1       -8.2780   40.5520  -18.9090 C.ar  415  TYR415     -0.0009
    134  CD2      -10.4400   41.5000  -18.5130 C.ar  415  TYR415     -0.0009
    135  CE1       -8.2150   40.1230  -17.5810 C.ar  415  TYR415      0.0417
    136  CE2      -10.3920   41.0790  -17.1900 C.ar  415  TYR415      0.0417
    137  CZ        -9.2770   40.3920  -16.7300 C.ar  415  TYR415      0.1957
    138  OH        -9.2280   39.9830  -15.4240 O.3   415  TYR415     -0.2866
    139  N        -15.4370   50.9790  -13.5980 N.3   446  GLN446     -0.1231
    140  CA       -14.5500   50.9800  -12.4440 C.3   446  GLN446      0.1698
    141  C        -13.2650   50.2070  -12.6740 C.2   446  GLN446      0.2592
    142  O        -13.2750   49.0890  -13.1820 O.2   446  GLN446     -0.2718
    143  CB       -15.2630   50.4030  -11.2200 C.3   446  GLN446      0.0381
    144  CG       -16.5290   51.1310  -10.8310 C.3   446  GLN446      0.0905
    145  CD       -17.0610   50.6700   -9.4930 C.2   446  GLN446      0.2608
    146  OE1      -17.1820   49.4710   -9.2390 O.2   446  GLN446     -0.2717
    147  NE2      -17.3870   51.6220   -8.6270 N.am  446  GLN446     -0.0878
    148  N        -12.1590   50.8200  -12.2810 N.am  447  ILE447     -0.1966
    149  CA       -10.8390   50.2150  -12.4040 C.3   447  ILE447      0.1727
    150  C        -10.2000   50.2870  -11.0240 C.2   447  ILE447      0.2616
    151  O         -9.9530   51.3730  -10.5020 O.2   447  ILE447     -0.2715
    152  CB        -9.9700   50.9810  -13.4210 C.3   447  ILE447      0.0290
    153  CG1      -10.6540   50.9680  -14.7950 C.3   447  ILE447      0.0022
    154  CG2       -8.5950   50.3380  -13.5240 C.3   447  ILE447      0.0023
    155  CD1       -9.9760   51.8430  -15.8300 C.3   447  ILE447      0.0001
    156  N         -9.9350   49.1240  -10.4400 N.am  448  TYR448     -0.1960
    157  CA        -9.3510   49.0400   -9.1060 C.3   448  TYR448      0.1771
    158  C        -10.2130   49.7870   -8.0950 C.2   448  TYR448      0.2620
    159  O         -9.7040   50.4760   -7.2050 O.2   448  TYR448     -0.2715
    160  CB        -7.9200   49.5850   -9.0910 C.3   448  TYR448      0.0574
    161  CG        -6.9130   48.7070   -9.8110 C.ar  448  TYR448     -0.0198
    162  CD1       -7.2300   47.3920  -10.1710 C.ar  448  TYR448     -0.0009
    163  CD2       -5.6260   49.1760  -10.0960 C.ar  448  TYR448     -0.0009
    164  CE1       -6.2900   46.5650  -10.7970 C.ar  448  TYR448      0.0417
    165  CE2       -4.6780   48.3570  -10.7210 C.ar  448  TYR448      0.0417
    166  CZ        -5.0160   47.0540  -11.0680 C.ar  448  TYR448      0.1957
    167  OH        -4.0840   46.2440  -11.6870 O.3   448  TYR448     -0.2866
    168  N        -11.5270   49.6510   -8.2570 N.am  449  GLY449     -0.1954
    169  CA       -12.4650   50.2740   -7.3430 C.3   449  GLY449      0.1869
    170  C        -12.8370   51.7130   -7.6300 C.2   449  GLY449      0.2309
    171  O        -13.9110   52.1520   -7.2330 O.2   449  GLY449     -0.2863
    172  N         -9.2740   51.2550   -4.4590 N.3   555  TYR555     -0.1227
    173  CA       -10.2720   52.0310   -3.7350 C.3   555  TYR555      0.1736
    174  C        -11.6210   51.3160   -3.6820 C.2   555  TYR555      0.2596
    175  O        -12.6610   51.9580   -3.5340 O.2   555  TYR555     -0.2718
    176  CB       -10.4590   53.3890   -4.4170 C.3   555  TYR555      0.0548
    177  CG        -9.1980   54.2160   -4.5460 C.ar  555  TYR555     -0.0200
    178  CD1       -8.7340   54.9910   -3.4840 C.ar  555  TYR555     -0.0009
    179  CD2       -8.4860   54.2460   -5.7470 C.ar  555  TYR555     -0.0009
    180  CE1       -7.5920   55.7820   -3.6190 C.ar  555  TYR555      0.0417
    181  CE2       -7.3500   55.0280   -5.8920 C.ar  555  TYR555      0.0417
    182  CZ        -6.9090   55.7950   -4.8260 C.ar  555  TYR555      0.1957
    183  OH        -5.7900   56.5760   -4.9800 O.3   555  TYR555     -0.2866
    184  N        -11.6100   49.9910   -3.7980 N.am  556  SER556     -0.1952
    185  CA       -12.8610   49.2390   -3.7710 C.3   556  SER556      0.1924
    186  C        -13.6640   49.5560   -2.5180 C.2   556  SER556      0.2314
    187  O        -13.1610   49.4440   -1.3980 O.2   556  SER556     -0.2863
    188  CB       -12.5910   47.7370   -3.8400 C.3   556  SER556      0.2116
    189  OG       -13.8140   47.0220   -3.8300 O.3   556  SER556     -0.2180
@<TRIPOS>BOND
     1   130   129    2
     2   129   128    1
     3   128   131    1
     4   128   127    1
     5   114   113    2
     6   131   132    1
     7   113   112    1
     8   127   121   am
     9    91    90    2
    10    88    89    1
    11   121   122    2
    12   121   120    1
    13   119   120    1
    14   115   112    1
    15   115   116    1
    16    90    89    1
    17    99    98    2
    18   132   133   ar
    19   132   134   ar
    20   112   111    1
    21    89    92    1
    22   133   135   ar
    23   120   123    1
    24   111   109   am
    25   107   108    1
    26    96    97    1
    27   134   136   ar
    28   109   110    2
    29   109   108    1
    30    98    97    1
    31   116   118   am
    32   116   117    2
    33    92    93    1
    34    22    23    1
    35    22    19    1
    36    97   100    1
    37   135   137   ar
    38   123   124    1
    39    23    24    1
    40   101   100    1
    41   101   102    1
    42   136   137   ar
    43    20    21    2
    44    20    19    1
    45    24    18    1
    46    17    16    1
    47   137   138    1
    48   124   125    1
    49    19    18    1
    50    93    94    1
    51    93    95    1
    52    16    13    1
    53    18    14   am
    54   102   103    1
    55   125   126    1
    56   155   153    1
    57   103   104    2
    58    14    13    1
    59    14    15    2
    60    13    12    1
    61   153   152    1
    62   104   106    1
    63   104   105    1
    64    25    26    1
    65    86    87    1
    66    86    83    1
    67    27    26    1
    68    27    28    2
    69    84    83    1
    70    84    85    2
    71    83    82    1
    72   139   140    1
    73    79    78    2
    74   154   152    1
    75    26    29    1
    76   152   149    1
    77    29    30    1
    78   142   141    2
    79   141   140    1
    80   141   148   am
    81    82    78   am
    82    78    77    1
    83   140   143    1
    84   149   148    1
    85   149   150    1
    86    30    31    1
    87    31    32    1
    88   167   166    1
    89    73    72    2
    90    80    77    1
    91    80    81    1
    92   143   144    1
    93    32    33    2
    94    77    76    1
    95   166   164   ar
    96   166   165   ar
    97   150   151    2
    98   150   156   am
    99   144   145    1
   100   164   162   ar
   101   165   163   ar
   102   156   157    1
   103    72    76   am
   104    72    71    1
   105   162   161   ar
   106   163   161   ar
   107    33    34    1
   108    33    35    1
   109   161   160    1
   110    74    71    1
   111    74    75    1
   112   145   146    2
   113   145   147   am
   114    71    70    1
   115   157   160    1
   116   157   158    1
   117     4     3    2
   118   168   158   am
   119   168   169    1
   120   158   159    2
   121     3     2    1
   122   170   169    1
   123   170   171    2
   124     2     1    1
   125     2     5    1
   126    49    47   am
   127     7     9   ar
   128     7     6   ar
   129    48    47    2
   130    47    46    1
   131     9    11   ar
   132     5     6    1
   133    69    67   ar
   134     6     8   ar
   135   181   179   ar
   136   181   182   ar
   137    68    67   ar
   138   179   177   ar
   139    67    66    1
   140    46    43    1
   141    11    10   ar
   142   183   182    1
   143   182   180   ar
   144     8    10   ar
   145   177   176    1
   146   177   178   ar
   147    66    63    1
   148   172   173    1
   149   176   173    1
   150    43    42    1
   151    43    44    1
   152   188   189    1
   153   188   185    1
   154   184   185    1
   155   184   174   am
   156   185   186    1
   157   173   174    1
   158   174   175    2
   159   180   178   ar
   160    45    44    2
   161    63    64    1
   162    63    62    1
   163    44    50   am
   164    65    64    2
   165   186   187    2
   166    62    56   am
   167    41    40    1
   168    50    51    1
   169    60    59   ar
   170    40    37    1
   171    51    52    1
   172    56    57    2
   173    56    55    1
   174    59    61   ar
   175    59    58    1
   176    54    52   am
   177    54    55    1
   178    52    53    2
   179    55    58    1
   180    37    38    1
   181    37    36    1
   182    38    39    2
