@<TRIPOS>MOLECULE
tmp/2fvdA00.pdb
 153 145 0 0 0
SMALL
GASTEIGER

@<TRIPOS>ATOM
      1  N         -1.1790   23.1820    3.3120 N.3    10  ILE10      -0.1245
      2  CA        -0.1190   23.4060    4.2910 C.3    10  ILE10       0.1561
      3  C         -0.2490   22.4690    5.4850 C.2    10  ILE10       0.2260
      4  O          0.7540   21.9960    6.0200 O.2    10  ILE10      -0.2867
      5  CB        -0.1260   24.8640    4.8080 C.3    10  ILE10       0.0252
      6  CG1        0.1790   25.8260    3.6640 C.3    10  ILE10       0.0019
      7  CG2        0.9070   25.0300    5.9160 C.3    10  ILE10       0.0019
      8  CD1        0.1060   27.2920    4.0610 C.3    10  ILE10       0.0001
      9  N         -9.8540   23.0700   11.2280 N.3    16  GLY16      -0.1225
     10  CA        -9.6300   23.7440    9.9650 C.3    16  GLY16       0.1811
     11  C         -8.4640   23.2450    9.1370 C.2    16  GLY16       0.2280
     12  O         -7.4450   22.8010    9.6710 O.2    16  GLY16      -0.2866
     13  N         -5.5930   24.1690    6.2830 N.3    18  VAL18      -0.1245
     14  CA        -4.8490   25.3460    5.8360 C.3    18  VAL18       0.1561
     15  C         -4.2020   25.1500    4.4660 C.2    18  VAL18       0.2260
     16  O         -3.5440   24.1380    4.2200 O.2    18  VAL18      -0.2867
     17  CB        -3.7320   25.6990    6.8420 C.3    18  VAL18       0.0252
     18  CG1       -3.1960   27.1010    6.5620 C.3    18  VAL18       0.0019
     19  CG2       -4.2600   25.5860    8.2660 C.3    18  VAL18       0.0019
     20  N         -2.2930   32.4700    3.0680 N.3    31  ALA31      -0.1245
     21  CA        -2.5730   31.2150    3.7430 C.3    31  ALA31       0.1562
     22  C         -4.0720   31.2740    3.9770 C.2    31  ALA31       0.2260
     23  O         -4.5890   32.2910    4.4420 O.2    31  ALA31      -0.2867
     24  CB        -1.8420   31.1390    5.0700 C.3    31  ALA31       0.0290
     25  N         -7.4670   29.5080    5.7980 N.3    33  LYS33      -0.1245
     26  CA        -7.9430   28.5810    6.8140 C.3    33  LYS33       0.1561
     27  C         -9.4010   28.2900    6.4760 C.2    33  LYS33       0.2260
     28  O        -10.2400   29.1910    6.5070 O.2    33  LYS33      -0.2867
     29  CB        -7.8470   29.1940    8.2160 C.3    33  LYS33       0.0271
     30  CG        -8.3200   28.2530    9.3210 C.3    33  LYS33       0.0035
     31  CD        -8.1160   28.8460   10.7050 C.3    33  LYS33       0.0206
     32  CE        -8.4110   27.8150   11.7870 C.3    33  LYS33       0.1093
     33  NZ        -8.1770   28.3430   13.1600 N.3    33  LYS33      -0.1314
     34  N          0.4580   37.7760   12.7420 N.3    52  VAL52      -0.1245
     35  CA         0.1860   37.4730   11.3400 C.3    52  VAL52       0.1561
     36  C         -1.0770   38.2360   10.9520 C.2    52  VAL52       0.2260
     37  O         -2.1140   38.1230   11.6040 O.2    52  VAL52      -0.2867
     38  CB        -0.0110   35.9550   11.0960 C.3    52  VAL52       0.0252
     39  CG1       -1.1810   35.4310   11.9010 C.3    52  VAL52       0.0019
     40  CG2       -0.2500   35.6950    9.6130 C.3    52  VAL52       0.0019
     41  N         -4.9780   34.8410    5.6600 N.3    68  PHE68      -0.1227
     42  CA        -3.8440   35.4000    6.3850 C.3    68  PHE68       0.1736
     43  C         -2.6460   35.6890    5.4920 C.2    68  PHE68       0.2595
     44  O         -2.4790   35.0700    4.4430 O.2    68  PHE68      -0.2718
     45  CB        -3.3970   34.4190    7.4760 C.3    68  PHE68       0.0547
     46  CG        -4.3900   34.2400    8.5850 C.ar   68  PHE68      -0.0202
     47  CD1       -4.5210   35.2060    9.5800 C.ar   68  PHE68      -0.0042
     48  CD2       -5.1730   33.0900    8.6560 C.ar   68  PHE68      -0.0042
     49  CE1       -5.4130   35.0290   10.6340 C.ar   68  PHE68      -0.0003
     50  CE2       -6.0710   32.9010    9.7080 C.ar   68  PHE68      -0.0003
     51  CZ        -6.1900   33.8710   10.7000 C.ar   68  PHE68      -0.0000
     52  N         -1.8120   36.6350    5.9130 N.am   69  GLU69      -0.1965
     53  CA        -0.6020   36.9350    5.1640 C.3    69  GLU69       0.1733
     54  C          0.2360   35.6570    5.2610 C.2    69  GLU69       0.2616
     55  O          0.2490   34.9910    6.2980 O.2    69  GLU69      -0.2715
     56  CB         0.1590   38.1030    5.8040 C.3    69  GLU69       0.0429
     57  CG         0.7450   37.7710    7.1590 C.3    69  GLU69       0.1163
     58  CD         1.6530   38.8570    7.7080 C.2    69  GLU69       0.3649
     59  OE1        2.6430   39.2130    7.0360 O.co2  69  GLU69      -0.2457
     60  OE2        1.3820   39.3480    8.8180 O.co2  69  GLU69      -0.2457
     61  N          0.9360   35.3200    4.1870 N.am   70  PHE70      -0.1960
     62  CA         1.7530   34.1120    4.1520 C.3    70  PHE70       0.1771
     63  C          3.1910   34.3040    4.6290 C.2    70  PHE70       0.2619
     64  O          3.8250   35.3020    4.3010 O.2    70  PHE70      -0.2715
     65  CB         1.7700   33.5600    2.7200 C.3    70  PHE70       0.0574
     66  CG         2.5780   32.3050    2.5590 C.ar   70  PHE70      -0.0200
     67  CD1        3.9100   32.3600    2.1630 C.ar   70  PHE70      -0.0042
     68  CD2        2.0110   31.0650    2.8330 C.ar   70  PHE70      -0.0042
     69  CE1        4.6640   31.1960    2.0440 C.ar   70  PHE70      -0.0003
     70  CE2        2.7590   29.8960    2.7180 C.ar   70  PHE70      -0.0003
     71  CZ         4.0850   29.9610    2.3240 C.ar   70  PHE70      -0.0000
     72  N          3.6830   33.3600    5.4300 N.am   71  LEU71      -0.1963
     73  CA         5.0820   33.3680    5.8760 C.3    71  LEU71       0.1728
     74  C          5.6150   31.9780    5.5310 C.2    71  LEU71       0.2616
     75  O          4.8850   30.9920    5.6230 O.2    71  LEU71      -0.2715
     76  CB         5.2270   33.6610    7.3730 C.3    71  LEU71       0.0311
     77  CG         5.0260   35.1380    7.7200 C.3    71  LEU71       0.0022
     78  CD1        3.5670   35.3660    8.0830 C.3    71  LEU71       0.0001
     79  CD2        5.9270   35.5400    8.8920 C.3    71  LEU71       0.0001
     80  N          6.8810   31.9000    5.1350 N.am   72  HIS72      -0.1959
     81  CA         7.4610   30.6340    4.6870 C.3    72  HIS72       0.1787
     82  C          7.8930   29.5720    5.6830 C.2    72  HIS72       0.2620
     83  O          8.1020   28.4230    5.2940 O.2    72  HIS72      -0.2715
     84  CB         8.6470   30.9110    3.7560 C.3    72  HIS72       0.0785
     85  CG         8.2630   31.5520    2.4600 C.ar   72  HIS72       0.0821
     86  ND1        7.9910   32.8980    2.3450 N.ar   72  HIS72      -0.2267
     87  CD2        8.0640   31.0210    1.2290 C.ar   72  HIS72       0.1154
     88  CE1        7.6370   33.1700    1.1020 C.ar   72  HIS72       0.1986
     89  NE2        7.6730   32.0480    0.4040 N.ar   72  HIS72      -0.2212
     90  N          8.0190   29.9150    6.9570 N.am   73  GLN73      -0.1963
     91  CA         8.4930   28.9100    7.9050 C.3    73  GLN73       0.1733
     92  C          8.0110   29.1760    9.3260 C.2    73  GLN73       0.2616
     93  O          7.6890   30.3140    9.6730 O.2    73  GLN73      -0.2715
     94  CB        10.0260   28.8920    7.8550 C.3    73  GLN73       0.0408
     95  CG        10.7080   27.7060    8.5270 C.3    73  GLN73       0.0908
     96  CD        12.1490   27.5390    8.0510 C.2    73  GLN73       0.2608
     97  OE1       12.4030   27.2650    6.8680 O.2    73  GLN73      -0.2717
     98  NE2       13.0960   27.7140    8.9610 N.am   73  GLN73      -0.0878
     99  N          7.9360   28.1230   10.1400 N.am   74  ASP74      -0.1971
    100  CA         7.5250   28.2990   11.5280 C.3    74  ASP74       0.1709
    101  C          8.7170   28.0250   12.4380 C.2    74  ASP74       0.2293
    102  O          9.7270   27.4600   12.0030 O.2    74  ASP74      -0.2864
    103  CB         6.3140   27.4150   11.8960 C.3    74  ASP74       0.1436
    104  CG         6.5840   25.9250   11.7570 C.2    74  ASP74       0.3671
    105  OD1        7.6770   25.4600   12.1420 O.co2  74  ASP74      -0.2456
    106  OD2        5.6750   25.2110   11.2820 O.co2  74  ASP74      -0.2456
    107  N         10.1390   24.3040   12.7160 N.3    77  LYS77      -0.1245
    108  CA        11.0330   23.8660   11.6480 C.3    77  LYS77       0.1561
    109  C         12.4240   24.4760   11.7730 C.2    77  LYS77       0.2260
    110  O         13.4330   23.8130   11.5080 O.2    77  LYS77      -0.2867
    111  CB        10.4390   24.2220   10.2790 C.3    77  LYS77       0.0271
    112  CG        11.3250   23.8370    9.0970 C.3    77  LYS77       0.0035
    113  CD        10.5910   24.0230    7.7650 C.3    77  LYS77       0.0206
    114  CE        11.4690   23.6270    6.5830 C.3    77  LYS77       0.1093
    115  NZ        10.7540   23.7940    5.2820 N.3    77  LYS77      -0.1314
    116  N          4.8690   25.9160   16.4560 N.3   119  GLN119     -0.1231
    117  CA         4.2240   25.8910   15.1490 C.3   119  GLN119      0.1698
    118  C          3.2900   27.0770   14.9270 C.2   119  GLN119      0.2592
    119  O          2.8800   27.3310   13.7970 O.2   119  GLN119     -0.2718
    120  CB         3.4580   24.5830   14.9600 C.3   119  GLN119      0.0381
    121  CG         2.2100   24.4760   15.8030 C.3   119  GLN119      0.0905
    122  CD         1.7180   23.0450   15.9140 C.2   119  GLN119      0.2608
    123  OE1        2.3650   22.2050   16.5430 O.2   119  GLN119     -0.2717
    124  NE2        0.5750   22.7580   15.2930 N.am  119  GLN119     -0.0878
    125  N          2.9450   27.7920   15.9940 N.am  120  ASN120     -0.1974
    126  CA         2.0860   28.9680   15.8530 C.3   120  ASN120      0.1688
    127  C          2.9020   30.2600   15.8430 C.2   120  ASN120      0.2292
    128  O          2.3620   31.3560   16.0240 O.2   120  ASN120     -0.2864
    129  CB         1.0280   29.0170   16.9610 C.3   120  ASN120      0.1181
    130  CG        -0.1320   28.0810   16.6910 C.2   120  ASN120      0.2629
    131  OD1       -0.3380   27.6520   15.5550 O.2   120  ASN120     -0.2716
    132  ND2       -0.9070   27.7710   17.7270 N.am  120  ASN120     -0.0877
    133  N          5.4470   32.1740   13.3470 N.3   122  LEU122     -0.1245
    134  CA         5.9610   32.2150   11.9870 C.3   122  LEU122      0.1561
    135  C          7.0930   33.2030   11.8220 C.2   122  LEU122      0.2260
    136  O          7.0790   34.2820   12.4090 O.2   122  LEU122     -0.2867
    137  CB         4.8210   32.5430   11.0240 C.3   122  LEU122      0.0270
    138  CG         3.6410   31.5760   11.1820 C.3   122  LEU122      0.0019
    139  CD1        2.5690   31.9290   10.1760 C.3   122  LEU122      0.0001
    140  CD2        4.1080   30.1420   10.9870 C.3   122  LEU122      0.0001
    141  N          0.6340   33.5340   15.3770 N.3   132  ALA132     -0.1231
    142  CA        -0.3620   33.0530   14.4300 C.3   132  ALA132      0.1694
    143  C         -1.4000   32.1490   15.0780 C.2   132  ALA132      0.2592
    144  O         -1.1840   31.6070   16.1640 O.2   132  ALA132     -0.2718
    145  CB         0.3210   32.3110   13.2980 C.3   132  ALA132      0.0304
    146  N         -2.5210   31.9920   14.3790 N.am  133  ASP133     -0.1974
    147  CA        -3.6390   31.1630   14.8160 C.3   133  ASP133      0.1709
    148  C         -4.1780   31.5020   16.2010 C.2   133  ASP133      0.2293
    149  O         -4.2530   30.6390   17.0770 O.2   133  ASP133     -0.2864
    150  CB        -3.2710   29.6730   14.7590 C.3   133  ASP133      0.1436
    151  CG        -4.5050   28.7700   14.6790 C.2   133  ASP133      0.3671
    152  OD1       -5.4740   29.1550   14.0010 O.co2 133  ASP133     -0.2456
    153  OD2       -4.5060   27.6720   15.2730 O.co2 133  ASP133     -0.2456
@<TRIPOS>BOND
     1    89    88   ar
     2    89    87   ar
     3    88    86   ar
     4    87    85   ar
     5    69    67   ar
     6    69    71   ar
     7    67    66   ar
     8    71    70   ar
     9    86    85   ar
    10    85    84    1
    11    66    65    1
    12    66    68   ar
    13    70    68   ar
    14    65    62    1
    15    20    21    1
    16     1     2    1
    17     6     8    1
    18     6     5    1
    19    21    22    1
    20    21    24    1
    21    84    81    1
    22    22    23    2
    23    62    61    1
    24    62    63    1
    25    61    54   am
    26    16    15    2
    27     2     5    1
    28     2     3    1
    29    64    63    2
    30    44    43    2
    31    15    14    1
    32    63    72   am
    33    81    80    1
    34    81    82    1
    35     5     7    1
    36    80    74   am
    37    53    54    1
    38    53    56    1
    39    53    52    1
    40    54    55    2
    41   115   114    1
    42    83    82    2
    43    72    73    1
    44     3     4    2
    45    43    52   am
    46    43    42    1
    47    74    75    2
    48    74    73    1
    49    41    42    1
    50    82    90   am
    51    25    26    1
    52    56    57    1
    53    14    13    1
    54    14    17    1
    55    73    76    1
    56    42    45    1
    57    27    28    2
    58    27    26    1
    59    18    17    1
    60   114   113    1
    61    26    29    1
    62    17    19    1
    63    97    96    2
    64    90    91    1
    65    59    58   ar
    66    57    58    1
    67    76    77    1
    68    45    46    1
    69    58    60   ar
    70    77    78    1
    71    77    79    1
    72   113   112    1
    73    94    91    1
    74    94    95    1
    75    91    92    1
    76    96    95    1
    77    96    98   am
    78    29    30    1
    79    46    48   ar
    80    46    47   ar
    81    48    50   ar
    82   112   111    1
    83    11    12    2
    84    11    10    1
    85    30    31    1
    86    92    93    2
    87    92    99   am
    88    47    49   ar
    89    40    38    1
    90    50    51   ar
    91    10     9    1
    92    99   100    1
    93   139   138    1
    94   111   108    1
    95    49    51   ar
    96    31    32    1
    97    36    35    1
    98    36    37    2
    99   140   138    1
   100   137   138    1
   101   137   134    1
   102    38    35    1
   103    38    39    1
   104   106   104   ar
   105    35    34    1
   106   110   109    2
   107   100   103    1
   108   100   101    1
   109   108   109    1
   110   108   107    1
   111   104   103    1
   112   104   105   ar
   113    32    33    1
   114   135   134    1
   115   135   136    2
   116   134   133    1
   117   102   101    2
   118   145   142    1
   119   119   118    2
   120   152   151   ar
   121   146   147    1
   122   146   143   am
   123   142   143    1
   124   142   141    1
   125   151   150    1
   126   151   153   ar
   127   150   147    1
   128   147   148    1
   129   118   117    1
   130   118   125   am
   131   120   117    1
   132   120   121    1
   133   143   144    2
   134   117   116    1
   135   124   122   am
   136   131   130    2
   137   121   122    1
   138   127   126    1
   139   127   128    2
   140   126   125    1
   141   126   129    1
   142   122   123    2
   143   148   149    2
   144   130   129    1
   145   130   132   am
