@<TRIPOS>MOLECULE
tmp/2fvfA01.pdb
 119 109 0 0 0
SMALL
GASTEIGER

@<TRIPOS>ATOM
      1  N          4.6650   -1.9000    7.0850 N.3    31  PHE31      -0.1227
      2  CA         5.3890   -1.0020    6.1920 C.3    31  PHE31       0.1736
      3  C          6.6810   -0.5130    6.8470 C.2    31  PHE31       0.2596
      4  O          7.7270   -0.4530    6.2030 O.2    31  PHE31      -0.2718
      5  CB         4.5070    0.1970    5.8210 C.3    31  PHE31       0.0547
      6  CG         3.4450   -0.2310    4.8270 C.ar   31  PHE31      -0.0202
      7  CD1        3.7990   -0.4850    3.4930 C.ar   31  PHE31      -0.0042
      8  CD2        2.1040   -0.3600    5.2280 C.ar   31  PHE31      -0.0042
      9  CE1        2.8180   -0.8710    2.5740 C.ar   31  PHE31      -0.0003
     10  CE2        1.1310   -0.7470    4.3000 C.ar   31  PHE31      -0.0003
     11  CZ         1.4900   -0.9960    2.9750 C.ar   31  PHE31      -0.0000
     12  N          6.6000   -0.1690    8.1280 N.am   32  SER32      -0.1952
     13  CA         7.7720    0.3110    8.8580 C.3    32  SER32       0.1924
     14  C          8.8770   -0.7460    8.8640 C.2    32  SER32       0.2314
     15  O         10.0530   -0.4260    8.7010 O.2    32  SER32      -0.2863
     16  CB         7.3810    0.6590   10.2950 C.3    32  SER32       0.2116
     17  OG         6.4410    1.7260   10.2790 O.3    32  SER32      -0.2180
     18  N          7.3280    6.0880    2.0470 N.3    41  THR41      -0.1218
     19  CA         5.9130    5.8750    2.3670 C.3    41  THR41       0.1862
     20  C          5.0020    6.7380    1.5060 C.2    41  THR41       0.2287
     21  O          3.9800    6.2680    1.0050 O.2    41  THR41      -0.2866
     22  CB         5.6710    6.2190    3.8430 C.3    41  THR41       0.1770
     23  OG1        6.4370    5.3460    4.6610 O.3    41  THR41      -0.2211
     24  CG2        4.1850    6.0640    4.1780 C.3    41  THR41       0.0375
     25  N          4.7480    5.3290   -1.8410 N.3    44  ILE44      -0.1231
     26  CA         3.9210    4.1230   -1.9130 C.3    44  ILE44       0.1692
     27  C          2.4740    4.4670   -2.2360 C.2    44  ILE44       0.2591
     28  O          1.8810    3.8960   -3.1530 O.2    44  ILE44      -0.2718
     29  CB         3.9550    3.3930   -0.5650 C.3    44  ILE44       0.0266
     30  CG1        5.4020    3.0670   -0.1710 C.3    44  ILE44       0.0019
     31  CG2        3.1330    2.1090   -0.6570 C.3    44  ILE44       0.0020
     32  CD1        6.0940    2.2550   -1.2550 C.3    44  ILE44       0.0001
     33  N          1.9100    5.4010   -1.4800 N.am   45  VAL45      -0.1980
     34  CA         0.5280    5.8080   -1.6990 C.3    45  VAL45       0.1595
     35  C          0.3960    6.5370   -3.0290 C.2    45  VAL45       0.2287
     36  O         -0.6180    6.4260   -3.7130 O.2    45  VAL45      -0.2864
     37  CB         0.0480    6.7120   -0.5590 C.3    45  VAL45       0.0276
     38  CG1        0.9620    7.9310   -0.4480 C.3    45  VAL45       0.0022
     39  CG2       -1.3820    7.1770   -0.8460 C.3    45  VAL45       0.0022
     40  N          0.1950    3.9260   -5.7050 N.3    48  LEU48      -0.1245
     41  CA        -1.0640    3.2030   -5.5830 C.3    48  LEU48       0.1561
     42  C         -2.2240    4.0710   -6.0520 C.2    48  LEU48       0.2260
     43  O         -3.1120    3.6010   -6.7560 O.2    48  LEU48      -0.2867
     44  CB        -1.2840    2.7700   -4.1260 C.3    48  LEU48       0.0270
     45  CG        -0.2480    1.7150   -3.7270 C.3    48  LEU48       0.0019
     46  CD1       -0.2450    1.5750   -2.2010 C.3    48  LEU48       0.0001
     47  CD2       -0.5990    0.3570   -4.3480 C.3    48  LEU48       0.0001
     48  N         -7.0670    6.4000   -7.5280 N.3    54  ILE54      -0.1245
     49  CA        -7.8410    6.8890   -6.3820 C.3    54  ILE54       0.1561
     50  C         -7.1000    8.0180   -5.6710 C.2    54  ILE54       0.2260
     51  O         -6.0510    8.4720   -6.1280 O.2    54  ILE54      -0.2867
     52  CB        -8.0960    5.7400   -5.4000 C.3    54  ILE54       0.0252
     53  CG1       -6.7550    5.1620   -4.9200 C.3    54  ILE54       0.0019
     54  CG2       -8.9040    4.6480   -6.1040 C.3    54  ILE54       0.0019
     55  CD1       -6.9870    4.1430   -3.7970 C.3    54  ILE54       0.0001
     56  N         -6.2630    9.2800   -1.4730 N.3    56  VAL56      -0.1245
     57  CA        -6.4070    9.0980   -0.0270 C.3    56  VAL56       0.1561
     58  C         -5.3730    9.9300    0.7220 C.2    56  VAL56       0.2260
     59  O         -4.2060    9.9900    0.3340 O.2    56  VAL56      -0.2867
     60  CB        -6.2280    7.6220    0.3330 C.3    56  VAL56       0.0252
     61  CG1       -4.8180    7.1710   -0.0470 C.3    56  VAL56       0.0019
     62  CG2       -6.4320    7.4380    1.8400 C.3    56  VAL56       0.0019
     63  N         -2.8930   11.0200    3.8900 N.3    58  GLU58      -0.1245
     64  CA        -1.9930   10.2810    4.7680 C.3    58  GLU58       0.1567
     65  C         -2.6130   10.1110    6.1510 C.2    58  GLU58       0.2260
     66  O         -2.4150    9.0890    6.8090 O.2    58  GLU58      -0.2867
     67  CB        -0.6610   11.0200    4.8910 C.3    58  GLU58       0.0388
     68  CG         0.0830   10.9620    3.5560 C.3    58  GLU58       0.1160
     69  CD         1.3700   11.7750    3.6410 C.2    58  GLU58       0.3649
     70  OE1        1.6330   12.3200    4.7000 O.co2  58  GLU58      -0.2457
     71  OE2        2.0740   11.8370    2.6470 O.co2  58  GLU58      -0.2457
     72  N         -4.8780    7.1940    6.0740 N.3    61  ALA61      -0.1231
     73  CA        -4.0940    5.9720    5.9550 C.3    61  ALA61       0.1694
     74  C         -3.2730    5.7180    7.2190 C.2    61  ALA61       0.2591
     75  O         -2.2530    5.0300    7.1790 O.2    61  ALA61      -0.2718
     76  CB        -3.1640    6.0640    4.7460 C.3    61  ALA61       0.0304
     77  N         -3.7280    6.2690    8.3370 N.am   62  GLN62      -0.1979
     78  CA        -3.0350    6.0870    9.6100 C.3    62  GLN62       0.1601
     79  C         -3.3750    4.7290   10.2210 C.2    62  GLN62       0.2287
     80  O         -2.5470    4.1160   10.8950 O.2    62  GLN62      -0.2864
     81  CB        -3.4290    7.2100   10.5770 C.3    62  GLN62       0.0394
     82  CG        -2.6770    8.4930   10.2120 C.3    62  GLN62       0.0908
     83  CD        -1.2230    8.3860   10.6580 C.2    62  GLN62       0.2608
     84  OE1       -0.9500    8.0600   11.8130 O.2    62  GLN62      -0.2717
     85  NE2       -0.2680    8.6420    9.8070 N.am   62  GLN62      -0.0878
     86  N         -3.5280    2.1610    8.8100 N.3    64  ILE64      -0.1231
     87  CA        -2.7670    1.1600    8.0820 C.3    64  ILE64       0.1692
     88  C         -1.5890    0.6710    8.9140 C.2    64  ILE64       0.2592
     89  O         -0.8210    1.4670    9.4550 O.2    64  ILE64      -0.2718
     90  CB        -2.2630    1.7560    6.7670 C.3    64  ILE64       0.0266
     91  CG1       -3.4330    2.4190    6.0370 C.3    64  ILE64       0.0019
     92  CG2       -1.6600    0.6610    5.8910 C.3    64  ILE64       0.0020
     93  CD1       -4.5840    1.4210    5.8300 C.3    64  ILE64       0.0001
     94  N         -1.4570   -0.6520    9.0180 N.am   65  SER65      -0.1952
     95  CA        -0.3740   -1.2610    9.7920 C.3    65  SER65       0.1924
     96  C          0.3360   -2.3270    8.9680 C.2    65  SER65       0.2314
     97  O          1.5310   -2.5550    9.1370 O.2    65  SER65      -0.2863
     98  CB        -0.9400   -1.8900   11.0660 C.3    65  SER65       0.2116
     99  OG         0.1220   -2.4510   11.8280 O.3    65  SER65      -0.2180
    100  N         -3.8520   -1.6540    3.9550 N.3    70  ALA70      -0.1245
    101  CA        -4.0230   -0.6570    2.9210 C.3    70  ALA70       0.1562
    102  C         -4.8880   -1.2380    1.8130 C.2    70  ALA70       0.2260
    103  O         -5.7050   -0.5420    1.2130 O.2    70  ALA70      -0.2867
    104  CB        -2.6600   -0.2210    2.3620 C.3    70  ALA70       0.0290
    105  N         -8.5720   -0.8890    2.5560 N.3    73  VAL73      -0.1231
    106  CA        -9.0030    0.4990    2.4200 C.3    73  VAL73       0.1692
    107  C         -9.1490    0.8740    0.9480 C.2    73  VAL73       0.2591
    108  O        -10.1170    1.5250    0.5570 O.2    73  VAL73      -0.2718
    109  CB        -7.9910    1.4300    3.0960 C.3    73  VAL73       0.0266
    110  CG1       -8.3760    2.8880    2.8330 C.3    73  VAL73       0.0020
    111  CG2       -7.9850    1.1690    4.6060 C.3    73  VAL73       0.0020
    112  N         -8.1790    0.4640    0.1370 N.am   74  ILE74      -0.1980
    113  CA        -8.2130    0.7730   -1.2880 C.3    74  ILE74       0.1595
    114  C         -9.4400    0.1430   -1.9460 C.2    74  ILE74       0.2287
    115  O        -10.1570    0.8040   -2.6940 O.2    74  ILE74      -0.2864
    116  CB        -6.9400    0.2340   -1.9510 C.3    74  ILE74       0.0276
    117  CG1       -5.7310    1.0460   -1.4610 C.3    74  ILE74       0.0022
    118  CG2       -7.0540    0.3500   -3.4760 C.3    74  ILE74       0.0022
    119  CD1       -4.4290    0.3170   -1.8190 C.3    74  ILE74       0.0001
@<TRIPOS>BOND
     1    48    49    1
     2    43    42    2
     3    49    50    1
     4    49    52    1
     5    51    50    2
     6    54    52    1
     7    42    41    1
     8    40    41    1
     9    41    44    1
    10    52    53    1
    11    53    55    1
    12    47    45    1
    13    44    45    1
    14    45    46    1
    15    36    35    2
    16   118   116    1
    17    28    27    2
    18    35    34    1
    19   115   114    2
    20    27    26    1
    21    27    33   am
    22   116   117    1
    23   116   113    1
    24   114   113    1
    25    26    25    1
    26    26    29    1
    27   119   117    1
    28    34    33    1
    29    34    37    1
    30    56    57    1
    31   113   112    1
    32    32    30    1
    33    39    37    1
    34    31    29    1
    35    29    30    1
    36    37    38    1
    37    61    60    1
    38    57    60    1
    39    57    58    1
    40   112   107   am
    41    60    62    1
    42    59    58    2
    43   108   107    2
    44   107   106    1
    45    21    20    2
    46   103   102    2
    47    20    19    1
    48   102   101    1
    49    18    19    1
    50   104   101    1
    51    19    22    1
    52   106   105    1
    53   106   109    1
    54     9    11   ar
    55     9     7   ar
    56    71    69   ar
    57   110   109    1
    58   101   100    1
    59    11    10   ar
    60   109   111    1
    61     7     6   ar
    62    68    69    1
    63    68    67    1
    64    69    70   ar
    65    22    24    1
    66    22    23    1
    67    63    64    1
    68    10     8   ar
    69    76    73    1
    70    64    67    1
    71    64    65    1
    72     6     8   ar
    73     6     5    1
    74     5     2    1
    75    93    91    1
    76    92    90    1
    77    73    72    1
    78    73    74    1
    79    91    90    1
    80    65    66    2
    81     2     3    1
    82     2     1    1
    83     4     3    2
    84    90    87    1
    85     3    12   am
    86    75    74    2
    87    74    77   am
    88    87    86    1
    89    87    88    1
    90    12    13    1
    91    77    78    1
    92    15    14    2
    93    13    14    1
    94    13    16    1
    95    88    94   am
    96    88    89    2
    97    96    97    2
    98    96    95    1
    99    94    95    1
   100    78    79    1
   101    78    81    1
   102    95    98    1
   103    85    83   am
   104    82    81    1
   105    82    83    1
   106    79    80    2
   107    17    16    1
   108    83    84    2
   109    98    99    1
