@<TRIPOS>MOLECULE
tmp/2fvkA00.pdb
 109 104 0 0 0
SMALL
GASTEIGER

@<TRIPOS>ATOM
      1  N         46.4600   53.2210   65.4570 N.3    61  HIS61      -0.1241
      2  CA        45.6890   52.5470   64.4150 C.3    61  HIS61       0.1621
      3  C         45.0380   51.2600   64.9130 C.2    61  HIS61       0.2264
      4  O         45.4530   50.1470   64.5610 O.2    61  HIS61      -0.2867
      5  CB        46.5420   52.2470   63.1760 C.3    61  HIS61       0.0745
      6  CG        45.7380   52.1270   61.9190 C.ar   61  HIS61       0.0817
      7  ND1       46.1250   52.7040   60.7290 N.ar   61  HIS61      -0.2268
      8  CD2       44.5380   51.5470   61.6830 C.ar   61  HIS61       0.1154
      9  CE1       45.2090   52.4630   59.8080 C.ar   61  HIS61       0.1986
     10  NE2       44.2360   51.7640   60.3620 N.ar   61  HIS61      -0.2212
     11  N         41.2160   49.2850   65.5630 N.3    63  HIS63      -0.1241
     12  CA        39.8020   49.2090   65.2220 C.3    63  HIS63       0.1621
     13  C         39.0520   48.4340   66.2880 C.2    63  HIS63       0.2264
     14  O         39.3830   47.2870   66.6040 O.2    63  HIS63      -0.2867
     15  CB        39.5980   48.5950   63.8310 C.3    63  HIS63       0.0745
     16  CG        40.1510   49.4430   62.7300 C.ar   63  HIS63       0.0817
     17  ND1       39.4970   50.5570   62.2520 N.ar   63  HIS63      -0.2268
     18  CD2       41.3200   49.3720   62.0520 C.ar   63  HIS63       0.1154
     19  CE1       40.2300   51.1260   61.3130 C.ar   63  HIS63       0.1986
     20  NE2       41.3420   50.4270   61.1730 N.ar   63  HIS63      -0.2212
     21  N         32.8470   48.4800   59.8240 N.3    71  LEU71      -0.1245
     22  CA        33.5600   47.2890   59.3770 C.3    71  LEU71       0.1561
     23  C         32.8150   46.0340   59.8260 C.2    71  LEU71       0.2260
     24  O         33.4270   45.0190   60.1740 O.2    71  LEU71      -0.2867
     25  CB        35.0030   47.3150   59.8970 C.3    71  LEU71       0.0270
     26  CG        35.8080   48.5880   59.5550 C.3    71  LEU71       0.0019
     27  CD1       36.9960   48.7990   60.4910 C.3    71  LEU71       0.0001
     28  CD2       36.2540   48.6040   58.0750 C.3    71  LEU71       0.0001
     29  N         39.6290   57.3270   52.8050 N.3   167  PHE167     -0.1241
     30  CA        39.9780   56.1720   51.9770 C.3   167  PHE167      0.1605
     31  C         39.9840   56.4890   50.4760 C.2   167  PHE167      0.2264
     32  O         39.1730   57.2800   49.9830 O.2   167  PHE167     -0.2867
     33  CB        39.0320   55.0100   52.2470 C.3   167  PHE167      0.0534
     34  CG        39.0330   54.5370   53.6730 C.ar  167  PHE167     -0.0203
     35  CD1       38.3590   55.2530   54.6710 C.ar  167  PHE167     -0.0042
     36  CD2       39.6720   53.3540   54.0210 C.ar  167  PHE167     -0.0042
     37  CE1       38.3530   54.8160   56.0010 C.ar  167  PHE167     -0.0003
     38  CE2       39.6770   52.9040   55.3540 C.ar  167  PHE167     -0.0003
     39  CZ        39.0130   53.6390   56.3430 C.ar  167  PHE167     -0.0000
     40  N         37.8890   50.7910   48.7220 N.3   170  TYR170     -0.1241
     41  CA        36.6940   50.2390   49.4080 C.3   170  TYR170      0.1605
     42  C         35.4110   50.8810   48.9040 C.2   170  TYR170      0.2264
     43  O         35.2940   52.1150   48.9160 O.2   170  TYR170     -0.2867
     44  CB        36.7350   50.4240   50.9200 C.3   170  TYR170      0.0534
     45  CG        37.7410   49.5960   51.6630 C.ar  170  TYR170     -0.0201
     46  CD1       38.8890   50.1840   52.2100 C.ar  170  TYR170     -0.0009
     47  CD2       37.5290   48.2340   51.8740 C.ar  170  TYR170     -0.0009
     48  CE1       39.8140   49.4290   52.9250 C.ar  170  TYR170      0.0417
     49  CE2       38.4450   47.4710   52.5950 C.ar  170  TYR170      0.0417
     50  CZ        39.5850   48.0730   53.1090 C.ar  170  TYR170      0.1957
     51  OH        40.4820   47.3120   53.8200 O.3   170  TYR170     -0.2866
     52  N         44.3120   56.2150   53.4980 N.3   197  HIS197     -0.1241
     53  CA        44.5070   54.8400   53.0660 C.3   197  HIS197      0.1621
     54  C         44.6330   54.9040   51.5490 C.2   197  HIS197      0.2264
     55  O         43.6320   55.0670   50.8390 O.2   197  HIS197     -0.2867
     56  CB        43.3160   53.9600   53.4870 C.3   197  HIS197      0.0745
     57  CG        43.4150   52.5410   53.0280 C.ar  197  HIS197      0.0817
     58  ND1       43.0500   51.4760   53.8240 N.ar  197  HIS197     -0.2268
     59  CD2       43.8360   52.0090   51.8550 C.ar  197  HIS197      0.1154
     60  CE1       43.2360   50.3500   53.1550 C.ar  197  HIS197      0.1986
     61  NE2       43.7170   50.6460   51.9600 N.ar  197  HIS197     -0.2212
     62  N         49.2130   52.4460   57.3700 N.3   253  HIS253     -0.1241
     63  CA        49.6390   51.0920   57.0000 C.3   253  HIS253      0.1621
     64  C         50.2670   50.9520   55.6040 C.2   253  HIS253      0.2264
     65  O         49.7140   50.3160   54.7080 O.2   253  HIS253     -0.2867
     66  CB        48.5320   50.0610   57.2550 C.3   253  HIS253      0.0745
     67  CG        47.1730   50.4580   56.7640 C.ar  253  HIS253      0.0817
     68  ND1       46.9140   50.7730   55.4470 N.ar  253  HIS253     -0.2268
     69  CD2       45.9820   50.5330   57.4080 C.ar  253  HIS253      0.1154
     70  CE1       45.6290   51.0500   55.3040 C.ar  253  HIS253      0.1986
     71  NE2       45.0400   50.9090   56.4790 N.ar  253  HIS253     -0.2212
     72  N         44.3580   41.1600   55.1760 N.3   320  CYS320     -0.1221
     73  CA        44.1960   42.5510   55.6090 C.3   320  CYS320      0.1808
     74  C         44.3880   43.4840   54.4190 C.2   320  CYS320      0.2601
     75  O         44.7310   43.0310   53.3330 O.2   320  CYS320     -0.2717
     76  CB        45.1860   42.9010   56.7320 C.3   320  CYS320      0.0970
     77  SG        46.9410   42.5760   56.3350 S.3   320  CYS320     -0.0800
     78  N         44.1650   44.7830   54.6290 N.am  321  SER321     -0.1952
     79  CA        44.3630   45.7820   53.5750 C.3   321  SER321      0.1924
     80  C         45.1880   46.9790   54.0420 C.2   321  SER321      0.2314
     81  O         44.8340   47.6340   55.0210 O.2   321  SER321     -0.2863
     82  CB        43.0270   46.2300   52.9750 C.3   321  SER321      0.2116
     83  OG        42.4690   45.2000   52.1790 O.3   321  SER321     -0.2180
     84  N         47.1160   48.4040   62.9970 N.3   348  ASP348     -0.1239
     85  CA        45.8870   48.2500   62.2190 C.3   348  ASP348      0.1674
     86  C         45.1050   47.0450   62.7890 C.2   348  ASP348      0.2266
     87  O         44.6390   46.1760   62.0560 O.2   348  ASP348     -0.2867
     88  CB        46.2170   48.1170   60.7240 C.3   348  ASP348      0.1410
     89  CG        45.0110   48.2590   59.8290 C.2   348  ASP348      0.3668
     90  OD1       43.9840   48.8540   60.2320 O.co2 348  ASP348     -0.2456
     91  OD2       45.1130   47.7700   58.6880 O.co2 348  ASP348     -0.2456
     92  N         42.4450   44.7840   64.0070 N.3   350  CYS350     -0.1235
     93  CA        41.0690   44.6240   63.5550 C.3   350  CYS350      0.1677
     94  C         40.6810   43.1490   63.5520 C.2   350  CYS350      0.2270
     95  O         41.0700   42.3960   62.6480 O.2   350  CYS350     -0.2867
     96  CB        40.8840   45.2360   62.1710 C.3   350  CYS350      0.0956
     97  SG        39.1560   45.4260   61.7430 S.3   350  CYS350     -0.0801
     98  N         38.4980   42.0200   56.4070 N.3   382  ASN382     -0.1225
     99  CA        39.9200   42.3220   56.4050 C.3   382  ASN382      0.1785
    100  C         40.4130   42.8090   57.7660 C.2   382  ASN382      0.2597
    101  O         39.8370   43.7230   58.3660 O.2   382  ASN382     -0.2718
    102  CB        40.2660   43.3450   55.3030 C.3   382  ASN382      0.1169
    103  CG        40.1800   42.7630   53.8890 C.2   382  ASN382      0.2627
    104  OD1       40.7900   43.2970   52.9710 O.2   382  ASN382     -0.2716
    105  ND2       39.4240   41.6820   53.7070 N.am  382  ASN382     -0.0877
    106  N         41.4820   42.1800   58.2430 N.am  383  GLY383     -0.1957
    107  CA        42.1360   42.6000   59.4730 C.3   383  GLY383      0.1869
    108  C         42.8370   41.5010   60.2430 C.2   383  GLY383      0.2309
    109  O         42.4550   40.3270   60.1670 O.2   383  GLY383     -0.2863
@<TRIPOS>BOND
     1    40    41    1
     2    42    43    2
     3    42    41    1
     4    41    44    1
     5    32    31    2
     6    31    30    1
     7    55    54    2
     8    44    45    1
     9    54    53    1
    10    45    47   ar
    11    45    46   ar
    12    59    61   ar
    13    59    57   ar
    14    47    49   ar
    15    61    60   ar
    16    30    33    1
    17    30    29    1
    18    83    82    1
    19    46    48   ar
    20    33    34    1
    21    49    50   ar
    22    48    50   ar
    23   104   103    2
    24    82    79    1
    25    57    56    1
    26    57    58   ar
    27    53    56    1
    28    53    52    1
    29    50    51    1
    30    60    58   ar
    31    75    74    2
    32    79    80    1
    33    79    78    1
    34    34    36   ar
    35    34    35   ar
    36   105   103   am
    37   103   102    1
    38    36    38   ar
    39    80    81    2
    40    74    78   am
    41    74    73    1
    42    35    37   ar
    43    65    64    2
    44    72    73    1
    45   102    99    1
    46    70    68   ar
    47    70    71   ar
    48    38    39   ar
    49    68    67   ar
    50    64    63    1
    51    73    76    1
    52    37    39   ar
    53    77    76    1
    54    99    98    1
    55    99   100    1
    56    71    69   ar
    57    67    66    1
    58    67    69   ar
    59    63    66    1
    60    63    62    1
    61   100   106   am
    62   100   101    2
    63    28    26    1
    64   106   107    1
    65    91    89   ar
    66    22    21    1
    67    22    23    1
    68    22    25    1
    69   107   108    1
    70    26    25    1
    71    26    27    1
    72     9    10   ar
    73     9     7   ar
    74    23    24    2
    75    89    90   ar
    76    89    88    1
    77   109   108    2
    78    10     8   ar
    79    88    85    1
    80     7     6   ar
    81    20    19   ar
    82    20    18   ar
    83    19    17   ar
    84     8     6   ar
    85    97    96    1
    86     6     5    1
    87    18    16   ar
    88    87    86    2
    89    96    93    1
    90    85    86    1
    91    85    84    1
    92    17    16   ar
    93    95    94    2
    94    16    15    1
    95     5     2    1
    96    94    93    1
    97    93    92    1
    98    15    12    1
    99     2     3    1
   100     2     1    1
   101     4     3    2
   102    12    11    1
   103    12    13    1
   104    13    14    2
