@<TRIPOS>MOLECULE
tmp/2fvmB00.pdb
 129 124 0 0 0
SMALL
GASTEIGER

@<TRIPOS>ATOM
      1  N         48.1700   65.5790   15.4940 N.3    61  HIS61      -0.1241
      2  CA        47.3480   66.2430   16.4830 C.3    61  HIS61       0.1621
      3  C         46.7220   67.5220   15.9310 C.2    61  HIS61       0.2264
      4  O         47.1340   68.6320   16.2630 O.2    61  HIS61      -0.2867
      5  CB        48.1630   66.5350   17.7340 C.3    61  HIS61       0.0745
      6  CG        47.3340   66.6590   18.9740 C.ar   61  HIS61       0.0817
      7  ND1       47.6920   66.0690   20.1670 N.ar   61  HIS61      -0.2268
      8  CD2       46.1580   67.2900   19.2020 C.ar   61  HIS61       0.1154
      9  CE1       46.7780   66.3470   21.0810 C.ar   61  HIS61       0.1986
     10  NE2       45.8340   67.0790   20.5190 N.ar   61  HIS61      -0.2212
     11  N         42.9200   69.5230   15.0950 N.3    63  HIS63      -0.1241
     12  CA        41.4760   69.5910   15.3050 C.3    63  HIS63       0.1621
     13  C         40.7860   70.3830   14.1970 C.2    63  HIS63       0.2264
     14  O         41.1550   71.5220   13.8890 O.2    63  HIS63      -0.2867
     15  CB        41.1380   70.1730   16.6810 C.3    63  HIS63       0.0745
     16  CG        41.6870   69.3820   17.8250 C.ar   63  HIS63       0.0817
     17  ND1       41.0420   68.2800   18.3450 N.ar   63  HIS63      -0.2268
     18  CD2       42.8220   69.5300   18.5490 C.ar   63  HIS63       0.1154
     19  CE1       41.7570   67.7800   19.3380 C.ar   63  HIS63       0.1986
     20  NE2       42.8450   68.5170   19.4770 N.ar   63  HIS63      -0.2212
     21  N         34.2960   70.4130   20.3480 N.3    71  LEU71      -0.1245
     22  CA        34.9920   71.6250   20.8100 C.3    71  LEU71       0.1561
     23  C         34.2750   72.8940   20.3350 C.2    71  LEU71       0.2260
     24  O         34.9160   73.9160   20.0320 O.2    71  LEU71      -0.2867
     25  CB        36.4620   71.6160   20.3660 C.3    71  LEU71       0.0270
     26  CG        37.2760   70.3260   20.5150 C.3    71  LEU71       0.0019
     27  CD1       38.5860   70.4430   19.7550 C.3    71  LEU71       0.0001
     28  CD2       37.5240   69.9690   21.9730 C.3    71  LEU71       0.0001
     29  N         40.6680   61.5490   27.9900 N.3   167  PHE167     -0.1241
     30  CA        40.9850   62.7520   28.7720 C.3   167  PHE167      0.1605
     31  C         40.8850   62.4870   30.2810 C.2   167  PHE167      0.2264
     32  O         39.9600   61.8130   30.7510 O.2   167  PHE167     -0.2867
     33  CB        40.0250   63.8990   28.4020 C.3   167  PHE167      0.0534
     34  CG        40.1360   64.3700   26.9630 C.ar  167  PHE167     -0.0203
     35  CD1       39.5590   63.6340   25.9170 C.ar  167  PHE167     -0.0042
     36  CD2       40.7970   65.5620   26.6560 C.ar  167  PHE167     -0.0042
     37  CE1       39.6540   64.0710   24.5860 C.ar  167  PHE167     -0.0003
     38  CE2       40.8970   66.0100   25.3370 C.ar  167  PHE167     -0.0003
     39  CZ        40.3230   65.2600   24.2970 C.ar  167  PHE167     -0.0000
     40  N         38.6510   68.1740   31.8680 N.3   170  TYR170     -0.1241
     41  CA        37.5270   68.7470   31.0820 C.3   170  TYR170      0.1605
     42  C         36.2040   68.1110   31.4840 C.2   170  TYR170      0.2264
     43  O         36.0440   66.8890   31.3520 O.2   170  TYR170     -0.2867
     44  CB        37.6570   68.5390   29.5690 C.3   170  TYR170      0.0534
     45  CG        38.7220   69.2960   28.8130 C.ar  170  TYR170     -0.0201
     46  CD1       39.7140   68.6000   28.1100 C.ar  170  TYR170     -0.0009
     47  CD2       38.7080   70.6910   28.7340 C.ar  170  TYR170     -0.0009
     48  CE1       40.6880   69.2630   27.3790 C.ar  170  TYR170      0.0417
     49  CE2       39.6870   71.3750   27.9960 C.ar  170  TYR170      0.0417
     50  CZ        40.6690   70.6450   27.3240 C.ar  170  TYR170      0.1957
     51  OH        41.6340   71.2960   26.5910 O.3   170  TYR170     -0.2866
     52  N         45.3470   62.6350   27.4940 N.3   197  HIS197     -0.1241
     53  CA        45.5480   64.0030   27.9700 C.3   197  HIS197      0.1621
     54  C         45.5850   63.9280   29.5060 C.2   197  HIS197      0.2264
     55  O         44.5660   63.6810   30.1630 O.2   197  HIS197     -0.2867
     56  CB        44.4200   64.9140   27.4770 C.3   197  HIS197      0.0745
     57  CG        44.4590   66.2980   28.0500 C.ar  197  HIS197      0.0817
     58  ND1       44.0630   67.4070   27.3350 N.ar  197  HIS197     -0.2268
     59  CD2       44.8440   66.7540   29.2660 C.ar  197  HIS197      0.1154
     60  CE1       44.1970   68.4840   28.0880 C.ar  197  HIS197      0.1986
     61  NE2       44.6660   68.1130   29.2650 N.ar  197  HIS197     -0.2212
     62  N         50.5890   66.4430   23.8790 N.3   253  HIS253     -0.1241
     63  CA        50.9770   67.8050   24.2670 C.3   253  HIS253      0.1621
     64  C         51.5440   67.9510   25.6900 C.2   253  HIS253      0.2264
     65  O         50.9690   68.6410   26.5350 O.2   253  HIS253     -0.2867
     66  CB        49.8260   68.8020   23.9980 C.3   253  HIS253      0.0745
     67  CG        48.5140   68.4220   24.6190 C.ar  253  HIS253      0.0817
     68  ND1       48.4020   67.9580   25.9140 N.ar  253  HIS253     -0.2268
     69  CD2       47.2510   68.4730   24.1310 C.ar  253  HIS253      0.1154
     70  CE1       47.1300   67.7260   26.1910 C.ar  253  HIS253      0.1986
     71  NE2       46.4110   68.0280   25.1250 N.ar  253  HIS253     -0.2212
     72  N         45.4640   77.8150   25.7860 N.3   320  CYS320     -0.1221
     73  CA        45.3680   76.4270   25.3500 C.3   320  CYS320      0.1808
     74  C         45.5010   75.4990   26.5560 C.2   320  CYS320      0.2601
     75  O         45.8120   75.9520   27.6600 O.2   320  CYS320     -0.2717
     76  CB        46.4440   76.1220   24.3020 C.3   320  CYS320      0.0970
     77  SG        48.1580   76.4740   24.8290 S.3   320  CYS320     -0.0800
     78  N         45.2550   74.2040   26.3460 N.am  321  SER321     -0.1952
     79  CA        45.3730   73.2020   27.4190 C.3   321  SER321      0.1924
     80  C         46.2680   72.0250   27.0270 C.2   321  SER321      0.2314
     81  O         46.0200   71.3740   26.0160 O.2   321  SER321     -0.2863
     82  CB        43.9970   72.7270   27.8870 C.3   321  SER321      0.2116
     83  OG        43.4660   73.6330   28.8360 O.3   321  SER321     -0.2180
     84  N         48.6610   70.5350   17.9240 N.3   348  ASP348     -0.1239
     85  CA        47.4410   70.7690   18.7030 C.3   348  ASP348      0.1674
     86  C         46.6710   71.9250   18.0590 C.2   348  ASP348      0.2266
     87  O         46.1120   72.7910   18.7420 O.2   348  ASP348     -0.2867
     88  CB        47.7390   71.0170   20.1970 C.3   348  ASP348      0.1410
     89  CG        46.5010   70.8760   21.0790 C.2   348  ASP348      0.3668
     90  OD1       45.5470   70.1830   20.6580 O.co2 348  ASP348     -0.2456
     91  OD2       46.4810   71.4640   22.1900 O.co2 348  ASP348     -0.2456
     92  N         44.1080   74.1760   16.7020 N.3   350  CYS350     -0.1235
     93  CA        42.7190   74.3490   17.0980 C.3   350  CYS350      0.1677
     94  C         42.3290   75.8130   17.0190 C.2   350  CYS350      0.2270
     95  O         42.7260   76.6190   17.8700 O.2   350  CYS350     -0.2867
     96  CB        42.5070   73.8040   18.5080 C.3   350  CYS350      0.0956
     97  SG        40.8000   73.5800   18.9150 S.3   350  CYS350     -0.0801
     98  N         40.0990   79.3520   16.5100 N.3   352  TYR352     -0.1241
     99  CA        38.9410   80.2160   16.7550 C.3   352  TYR352      0.1605
    100  C         39.3310   81.6580   16.4330 C.2   352  TYR352      0.2264
    101  O         40.4060   82.1060   16.8290 O.2   352  TYR352     -0.2867
    102  CB        38.4750   80.1250   18.2200 C.3   352  TYR352      0.0534
    103  CG        38.2260   78.7210   18.7310 C.ar  352  TYR352     -0.0201
    104  CD1       39.1900   78.0570   19.4770 C.ar  352  TYR352     -0.0009
    105  CD2       37.0270   78.0580   18.4610 C.ar  352  TYR352     -0.0009
    106  CE1       38.9720   76.7790   19.9450 C.ar  352  TYR352      0.0417
    107  CE2       36.7960   76.7700   18.9190 C.ar  352  TYR352      0.0417
    108  CZ        37.7730   76.1370   19.6670 C.ar  352  TYR352      0.1957
    109  OH        37.5620   74.8570   20.1340 O.3   352  TYR352     -0.2866
    110  N         39.6980   76.9720   24.1380 N.3   382  ASN382     -0.1225
    111  CA        41.1170   76.6440   24.2130 C.3   382  ASN382      0.1785
    112  C         41.6760   76.2150   22.8620 C.2   382  ASN382      0.2598
    113  O         41.0520   75.4300   22.1510 O.2   382  ASN382     -0.2718
    114  CB        41.3430   75.5530   25.2750 C.3   382  ASN382      0.1169
    115  CG        41.1720   76.0700   26.7100 C.2   382  ASN382      0.2627
    116  OD1       41.5950   75.4210   27.6600 O.2   382  ASN382     -0.2716
    117  ND2       40.5600   77.2350   26.8650 N.am  382  ASN382     -0.0877
    118  N         42.8380   76.7530   22.5020 N.am  383  GLY383     -0.1942
    119  CA        43.5180   76.3460   21.2660 C.3   383  GLY383      0.2014
    120  C         44.2640   77.4350   20.5190 C.2   383  GLY383      0.2638
    121  O         43.9300   78.6100   20.6190 O.2   383  GLY383     -0.2714
    122  N         45.2740   77.0150   19.7610 N.am  384  LEU384     -0.1977
    123  CA        46.0600   77.8790   18.8830 C.3   384  LEU384      0.1596
    124  C         46.0760   77.2830   17.4740 C.2   384  LEU384      0.2287
    125  O         46.1630   76.0570   17.3350 O.2   384  LEU384     -0.2864
    126  CB        47.5000   77.9310   19.4030 C.3   384  LEU384      0.0297
    127  CG        47.8870   78.8070   20.6020 C.3   384  LEU384      0.0022
    128  CD1       47.0000   78.6210   21.8270 C.3   384  LEU384      0.0001
    129  CD2       49.3320   78.5550   20.9800 C.3   384  LEU384      0.0001
@<TRIPOS>BOND
     1    14    13    2
     2    13    12    1
     3    11    12    1
     4    12    15    1
     5     1     2    1
     6     3     4    2
     7     3     2    1
     8   100    99    1
     9   100   101    2
    10     2     5    1
    11    98    99    1
    12    15    16    1
    13    92    93    1
    14    99   102    1
    15    94    93    1
    16    94    95    2
    17    93    96    1
    18   125   124    2
    19   124   123    1
    20     5     6    1
    21    16    17   ar
    22    16    18   ar
    23    84    85    1
    24    86    85    1
    25    86    87    2
    26   102   103    1
    27    17    19   ar
    28   105   103   ar
    29   105   107   ar
    30    96    97    1
    31    18    20   ar
    32    85    88    1
    33   103   104   ar
    34   123   126    1
    35   123   122    1
    36   107   108   ar
    37     6     8   ar
    38     6     7   ar
    39     8    10   ar
    40    19    20   ar
    41   126   127    1
    42   104   106   ar
    43   108   106   ar
    44   108   109    1
    45    27    26    1
    46   122   120   am
    47    24    23    2
    48     7     9   ar
    49    88    89    1
    50    23    22    1
    51    21    22    1
    52    25    26    1
    53    25    22    1
    54    26    28    1
    55    10     9   ar
    56   120   121    2
    57   120   119    1
    58   127   129    1
    59   127   128    1
    60    90    89   ar
    61    89    91   ar
    62   119   118    1
    63   113   112    2
    64   118   112   am
    65   112   111    1
    66    62    63    1
    67    66    63    1
    68    66    67    1
    69    69    67   ar
    70    69    71   ar
    71   110   111    1
    72   111   114    1
    73    63    64    1
    74    39    37   ar
    75    39    38   ar
    76    76    77    1
    77    76    73    1
    78    37    35   ar
    79    67    68   ar
    80    71    70   ar
    81   114   115    1
    82    38    36   ar
    83    73    72    1
    84    73    74    1
    85    64    65    2
    86    68    70   ar
    87    35    34   ar
    88    81    80    2
    89    78    74   am
    90    78    79    1
    91    74    75    2
    92    51    50    1
    93    36    34   ar
    94   115   117   am
    95   115   116    2
    96    34    33    1
    97    80    79    1
    98    50    48   ar
    99    50    49   ar
   100    58    57   ar
   101    58    60   ar
   102    48    46   ar
   103    79    82    1
   104    56    53    1
   105    56    57    1
   106    52    53    1
   107    82    83    1
   108    53    54    1
   109    29    30    1
   110    49    47   ar
   111    57    59   ar
   112    60    61   ar
   113    46    45   ar
   114    33    30    1
   115    47    45   ar
   116    30    31    1
   117    45    44    1
   118    61    59   ar
   119    54    55    2
   120    44    41    1
   121    31    32    2
   122    41    42    1
   123    41    40    1
   124    43    42    2
