@<TRIPOS>MOLECULE
tmp/2fvvA00.pdb
 143 131 0 0 0
SMALL
GASTEIGER

@<TRIPOS>ATOM
      1  N         17.6160    5.1710   26.5840 N.3     3  ARG3       -0.1245
      2  CA        16.8560    4.1010   25.9580 C.3     3  ARG3        0.1563
      3  C         16.3510    3.0870   26.9960 C.2     3  ARG3        0.2260
      4  O         17.0030    2.7890   28.0360 O.2     3  ARG3       -0.2867
      5  CB        17.7700    3.3760   24.9610 C.3     3  ARG3        0.0307
      6  CG        18.2170    4.2580   23.8130 C.3     3  ARG3        0.0489
      7  CD        19.2440    3.4970   23.0100 C.3     3  ARG3        0.2205
      8  NE        20.1790    4.4380   22.4360 N.pl3   3  ARG3       -0.0865
      9  CZ        20.7510    4.3810   21.2580 C.cat   3  ARG3        0.5346
     10  NH1       20.4790    3.3640   20.4280 N.pl3   3  ARG3        0.1354
     11  NH2       21.5990    5.3280   20.8590 N.pl3   3  ARG3        0.1354
     12  N         14.1570   -3.0900   22.3720 N.3    11  LYS11      -0.1245
     13  CA        14.0440   -1.6510   22.6390 C.3    11  LYS11       0.1561
     14  C         12.5830   -1.2330   22.6450 C.2    11  LYS11       0.2260
     15  O         11.8400   -1.5820   21.7290 O.2    11  LYS11      -0.2867
     16  CB        14.9260   -0.9030   21.6170 C.3    11  LYS11       0.0271
     17  CG        15.2030    0.4980   21.9770 C.3    11  LYS11       0.0035
     18  CD        16.3710    1.1560   21.2680 C.3    11  LYS11       0.0206
     19  CE        16.6560    0.6520   19.8640 C.3    11  LYS11       0.1093
     20  NZ        17.7810    1.5440   19.3250 N.3    11  LYS11      -0.1314
     21  N          9.5970    1.2590   22.0440 N.3    13  ARG13      -0.1245
     22  CA         9.3680    2.3930   21.1570 C.3    13  ARG13       0.1563
     23  C          7.8870    2.6710   21.0480 C.2    13  ARG13       0.2260
     24  O          7.0630    1.7980   21.3500 O.2    13  ARG13      -0.2867
     25  CB         9.8410    2.1400   19.7020 C.3    13  ARG13       0.0307
     26  CG        11.3150    1.7580   19.6230 C.3    13  ARG13       0.0489
     27  CD        11.6290    1.6040   18.1290 C.3    13  ARG13       0.2205
     28  NE        11.4850    2.8990   17.4490 N.pl3  13  ARG13      -0.0865
     29  CZ        10.4970    3.1470   16.5910 C.cat  13  ARG13       0.5346
     30  NH1       10.4560    4.3550   16.0130 N.pl3  13  ARG13       0.1354
     31  NH2        9.6120    2.2010   16.3420 N.pl3  13  ARG13       0.1354
     32  N         14.2030   10.2970    7.5280 N.3    32  SER32      -0.1202
     33  CA        15.1530    9.6550    8.4510 C.3    32  SER32       0.2020
     34  C         16.3020   10.5660    8.8120 C.2    32  SER32       0.2619
     35  O         16.8230   11.2580    7.9440 O.2    32  SER32      -0.2717
     36  CB        15.7180    8.3970    7.8010 C.3    32  SER32       0.2103
     37  OG        16.8430    7.8730    8.4850 O.3    32  SER32      -0.2182
     38  N         16.7280   10.5720   10.0740 N.am   33  SER33      -0.1937
     39  CA        17.8560   11.4200   10.4090 C.3    33  SER33       0.2055
     40  C         19.1420   11.0660    9.7210 C.2    33  SER33       0.2642
     41  O         19.8950   11.8250    9.1280 O.2    33  SER33      -0.2714
     42  CB        18.0660   11.1890   11.9230 C.3    33  SER33       0.2130
     43  OG        17.3590   12.2350   12.5540 O.3    33  SER33      -0.2179
     44  N         19.4830    9.7840    9.8300 N.am   34  ARG34      -0.1977
     45  CA        20.7920    9.4400    9.2350 C.3    34  ARG34       0.1597
     46  C         20.6600    9.2950    7.7420 C.2    34  ARG34       0.2287
     47  O         21.6600    9.4190    7.0370 O.2    34  ARG34      -0.2864
     48  CB        21.2940    8.1840    9.9400 C.3    34  ARG34       0.0334
     49  CG        21.8060    8.5630   11.3320 C.3    34  ARG34       0.0492
     50  CD        22.3290    7.3330   12.0440 C.3    34  ARG34       0.2205
     51  NE        22.0920    7.3950   13.4810 N.pl3  34  ARG34      -0.0865
     52  CZ        21.9780    6.3280   14.2650 C.cat  34  ARG34       0.5346
     53  NH1       22.0840    5.1060   13.7300 N.pl3  34  ARG34       0.1354
     54  NH2       21.7630    6.5500   15.5590 N.pl3  34  ARG34       0.1354
     55  N         15.0810    9.0120    2.8740 N.3    38  ARG38      -0.1245
     56  CA        14.1100    7.9860    3.2010 C.3    38  ARG38       0.1563
     57  C         12.9870    8.5470    4.0830 C.2    38  ARG38       0.2260
     58  O         13.2430    9.4990    4.8600 O.2    38  ARG38      -0.2867
     59  CB        14.7720    6.9000    4.0220 C.3    38  ARG38       0.0307
     60  CG        15.9640    6.2190    3.3650 C.3    38  ARG38       0.0489
     61  CD        16.6130    5.3110    4.4250 C.3    38  ARG38       0.2205
     62  NE        17.8780    4.7050    4.0410 N.pl3  38  ARG38      -0.0865
     63  CZ        18.5020    3.7380    4.6990 C.cat  38  ARG38       0.5346
     64  NH1       18.0010    3.2160    5.8000 N.pl3  38  ARG38       0.1354
     65  NH2       19.6580    3.3010    4.2330 N.pl3  38  ARG38       0.1354
     66  N         10.0280    7.6470    7.1370 N.3    40  ILE40      -0.1245
     67  CA         9.6940    6.7400    8.2280 C.3    40  ILE40       0.1561
     68  C          8.4130    7.2350    8.9190 C.2    40  ILE40       0.2260
     69  O          8.0400    8.4570    8.7990 O.2    40  ILE40      -0.2867
     70  CB        10.8080    6.6690    9.2710 C.3    40  ILE40       0.0252
     71  CG1       11.0640    8.0610    9.9760 C.3    40  ILE40       0.0019
     72  CG2       12.1060    6.1560    8.6540 C.3    40  ILE40       0.0019
     73  CD1       12.1300    7.9840   11.0620 C.3    40  ILE40       0.0001
     74  N          8.1740    8.5130   15.4350 N.3    43  GLY43      -0.1210
     75  CA         8.1520    7.6870   16.6550 C.3    43  GLY43       0.1956
     76  C          9.5530    7.6220   17.2230 C.2    43  GLY43       0.2612
     77  O         10.5210    8.2140   16.6970 O.2    43  GLY43      -0.2717
     78  N          9.6830    6.8920   18.3220 N.am   44  GLY44      -0.1942
     79  CA        11.0050    6.7600   18.8830 C.3    44  GLY44       0.2014
     80  C         10.9310    6.0560   20.2210 C.2    44  GLY44       0.2639
     81  O          9.9100    5.4440   20.5940 O.2    44  GLY44      -0.2714
     82  N         12.0530    6.1550   20.9440 N.am   45  GLY45      -0.1954
     83  CA        12.1590    5.4110   22.1770 C.3    45  GLY45       0.1869
     84  C         11.2890    5.9510   23.2940 C.2    45  GLY45       0.2309
     85  O         11.0940    7.1420   23.4400 O.2    45  GLY45      -0.2863
     86  N          9.4250   15.0830   16.3020 N.3    63  GLU63      -0.1245
     87  CA         9.9280   14.7310   14.9790 C.3    63  GLU63       0.1567
     88  C          9.1300   15.3560   13.8480 C.2    63  GLU63       0.2260
     89  O          9.7420   15.7280   12.8300 O.2    63  GLU63      -0.2867
     90  CB         9.8480   13.2100   14.7560 C.3    63  GLU63       0.0388
     91  CG        10.8430   12.4710   15.6230 C.3    63  GLU63       0.1160
     92  CD        11.0600   11.0380   15.1650 C.2    63  GLU63       0.3649
     93  OE1       10.2280   10.4750   14.4550 O.co2  63  GLU63      -0.2457
     94  OE2       12.1310   10.4890   15.5490 O.co2  63  GLU63      -0.2457
     95  N          9.8220   -5.6980   15.6860 N.3    79  ASN79      -0.1240
     96  CA        10.7920   -5.8490   14.5930 C.3    79  ASN79       0.1653
     97  C         11.8140   -6.8380   15.1100 C.2    79  ASN79       0.2266
     98  O         12.6950   -6.5390   15.9440 O.2    79  ASN79      -0.2867
     99  CB        11.3810   -4.4970   14.2600 C.3    79  ASN79       0.1155
    100  CG        12.3490   -4.4950   13.1410 C.2    79  ASN79       0.2627
    101  OD1       13.0300   -5.5190   12.9330 O.2    79  ASN79      -0.2716
    102  ND2       12.4570   -3.4130   12.4180 N.am   79  ASN79      -0.0877
    103  N         15.5530   -5.9730   14.1890 N.3    82  ARG82      -0.1245
    104  CA        16.2850   -4.8920   14.9120 C.3    82  ARG82       0.1563
    105  C         16.0370   -4.9310   16.4130 C.2    82  ARG82       0.2260
    106  O         16.5490   -4.0900   17.1840 O.2    82  ARG82      -0.2867
    107  CB        15.8600   -3.5180   14.3970 C.3    82  ARG82       0.0307
    108  CG        16.1180   -3.3270   12.8780 C.3    82  ARG82       0.0489
    109  CD        17.5000   -3.7340   12.4540 C.3    82  ARG82       0.2205
    110  NE        18.5390   -2.8680   13.0070 N.pl3  82  ARG82      -0.0865
    111  CZ        19.8420   -3.0850   12.9220 C.cat  82  ARG82       0.5346
    112  NH1       20.3230   -4.1540   12.3080 N.pl3  82  ARG82       0.1354
    113  NH2       20.6610   -2.2080   13.4730 N.pl3  82  ARG82       0.1354
    114  N         13.1210   -4.3790   18.1740 N.3    84  HIS84      -0.1241
    115  CA        12.2840   -3.3030   18.6040 C.3    84  HIS84       0.1621
    116  C         10.9090   -3.8160   18.9870 C.2    84  HIS84       0.2264
    117  O         10.4050   -4.7340   18.3000 O.2    84  HIS84      -0.2867
    118  CB        12.0090   -2.2450   17.5180 C.3    84  HIS84       0.0745
    119  CG        13.2340   -1.5510   17.0150 C.ar   84  HIS84       0.0817
    120  ND1       13.1640   -0.9320   15.7470 N.ar   84  HIS84      -0.2268
    121  CD2       14.4660   -1.4100   17.4990 C.ar   84  HIS84       0.1154
    122  CE1       14.3490   -0.4010   15.4950 C.ar   84  HIS84       0.1986
    123  NE2       15.1640   -0.6550   16.5350 N.ar   84  HIS84      -0.2212
    124  N         15.0710   17.8490    9.8010 N.3   108  ARG108     -0.1245
    125  CA        14.1030   16.8020    9.4570 C.3   108  ARG108      0.1563
    126  C         12.9550   17.3960    8.6500 C.2   108  ARG108      0.2260
    127  O         12.4600   18.4680    8.9720 O.2   108  ARG108     -0.2867
    128  CB        13.5430   16.1320   10.7310 C.3   108  ARG108      0.0307
    129  CG        12.8980   14.7990   10.3800 C.3   108  ARG108      0.0489
    130  CD        12.3520   14.1230   11.6150 C.3   108  ARG108      0.2205
    131  NE        13.1570   13.7600   12.7610 N.pl3 108  ARG108     -0.0865
    132  CZ        13.7890   12.5720   12.9410 C.cat 108  ARG108      0.5346
    133  NH1       13.7670   11.6110   11.9860 N.pl3 108  ARG108      0.1354
    134  NH2       14.4770   12.3870   14.0780 N.pl3 108  ARG108      0.1354
    135  N         11.7020   -0.1850    5.8000 N.3   126  LYS126     -0.1245
    136  CA        10.8380   -0.2030    7.0170 C.3   126  LYS126      0.1561
    137  C          9.6280   -1.1140    6.7950 C.2   126  LYS126      0.2260
    138  O          8.4590   -0.6840    6.9690 O.2   126  LYS126     -0.2867
    139  CB        10.3830    1.2030    7.4460 C.3   126  LYS126      0.0271
    140  CG        11.5540    2.0800    7.9440 C.3   126  LYS126      0.0035
    141  CD        12.1490    1.6200    9.2860 C.3   126  LYS126      0.0206
    142  CE        12.6730    2.6810   10.2180 C.3   126  LYS126      0.1093
    143  NZ        12.7900    2.1390   11.6250 N.3   126  LYS126     -0.1314
@<TRIPOS>BOND
     1    55    56    1
     2    56    59    1
     3    56    57    1
     4    60    59    1
     5    60    61    1
     6    62    61    1
     7    62    63    2
     8    57    58    2
     9    65    63    1
    10    63    64    1
    11   135   136    1
    12   137   138    2
    13   137   136    1
    14   136   139    1
    15    47    46    2
    16    66    67    1
    17   139   140    1
    18    32    33    1
    19    46    45    1
    20    36    33    1
    21    36    37    1
    22   140   141    1
    23    35    34    2
    24    67    68    1
    25    67    70    1
    26    33    34    1
    27   126   127    2
    28   126   125    1
    29    72    70    1
    30    69    68    2
    31    34    38   am
    32    41    40    2
    33    45    44    1
    34    45    48    1
    35    70    71    1
    36   141   142    1
    37   125   124    1
    38   125   128    1
    39    40    44   am
    40    40    39    1
    41    48    49    1
    42    71    73    1
    43    38    39    1
    44   142   143    1
    45   129   128    1
    46   129   130    1
    47    39    42    1
    48    49    50    1
    49   130   131    1
    50    42    43    1
    51   133   132    1
    52    50    51    1
    53   112   111    1
    54   102   100   am
    55   109   108    1
    56   109   110    1
    57   131   132    2
    58    89    88    2
    59   108   107    1
    60   111   110    2
    61   111   113    1
    62   101   100    2
    63   132   134    1
    64   100    99    1
    65    51    52    2
    66    53    52    1
    67    88    87    1
    68   103   104    1
    69    99    96    1
    70    52    54    1
    71   107   104    1
    72    93    92   ar
    73    96    97    1
    74    96    95    1
    75    90    87    1
    76    90    91    1
    77   104   105    1
    78    87    86    1
    79    97    98    2
    80    92    94   ar
    81    92    91    1
    82    74    75    1
    83   122   120   ar
    84   122   123   ar
    85   120   119   ar
    86    30    29    1
    87    31    29    1
    88   105   106    2
    89   123   121   ar
    90    29    28    2
    91    75    76    1
    92    77    76    2
    93   119   121   ar
    94   119   118    1
    95    76    78   am
    96    28    27    1
    97   118   115    1
    98    27    26    1
    99   114   115    1
   100   117   116    2
   101    78    79    1
   102   115   116    1
   103    79    80    1
   104    20    19    1
   105    26    25    1
   106    25    22    1
   107    19    18    1
   108    80    81    2
   109    80    82   am
   110    10     9    1
   111    11     9    1
   112    82    83    1
   113    23    22    1
   114    23    24    2
   115    22    21    1
   116     9     8    2
   117    18    17    1
   118    16    17    1
   119    16    13    1
   120    15    14    2
   121    83    84    1
   122    12    13    1
   123     8     7    1
   124    13    14    1
   125     7     6    1
   126    84    85    2
   127     6     5    1
   128     5     2    1
   129     2     1    1
   130     2     3    1
   131     3     4    2
