@<TRIPOS>MOLECULE
tmp/2fw4B00.pdb
 115 109 0 0 0
SMALL
GASTEIGER

@<TRIPOS>ATOM
      1  N          9.7770   65.1290   50.9690 N.3    63  HIS63      -0.1241
      2  CA         8.7430   64.4990   51.8160 C.3    63  HIS63       0.1621
      3  C          8.9740   62.9670   51.7950 C.2    63  HIS63       0.2264
      4  O          9.2840   62.4340   50.7230 O.2    63  HIS63      -0.2867
      5  CB         7.3720   64.8610   51.2440 C.3    63  HIS63       0.0745
      6  CG         7.0490   66.3240   51.3580 C.ar   63  HIS63       0.0817
      7  ND1        5.9860   66.9090   50.7190 N.ar   63  HIS63      -0.2268
      8  CD2        7.6630   67.3220   52.0390 C.ar   63  HIS63       0.1154
      9  CE1        5.9360   68.1930   51.0200 C.ar   63  HIS63       0.1986
     10  NE2        6.9520   68.4780   51.8060 N.ar   63  HIS63      -0.2212
     11  N          0.4560   60.3770   57.0540 N.3    87  PHE87      -0.1227
     12  CA         0.6820   60.3540   55.5940 C.3    87  PHE87       0.1736
     13  C          2.0820   60.8500   55.2120 C.2    87  PHE87       0.2595
     14  O          2.5730   60.6760   54.0500 O.2    87  PHE87      -0.2718
     15  CB        -0.4180   61.1480   54.8660 C.3    87  PHE87       0.0547
     16  CG        -0.4210   62.6460   55.1590 C.ar   87  PHE87      -0.0202
     17  CD1       -1.0620   63.1370   56.3110 C.ar   87  PHE87      -0.0042
     18  CD2        0.1970   63.5630   54.2550 C.ar   87  PHE87      -0.0042
     19  CE1       -1.0590   64.5080   56.5870 C.ar   87  PHE87      -0.0003
     20  CE2        0.2280   64.9070   54.5480 C.ar   87  PHE87      -0.0003
     21  CZ        -0.4470   65.3810   55.6950 C.ar   87  PHE87      -0.0000
     22  N          2.7680   61.4340   56.1750 N.am   88  GLN88      -0.1979
     23  CA         4.0110   62.0990   55.8190 C.3    88  GLN88       0.1601
     24  C          4.8140   62.5480   56.9890 C.2    88  GLN88       0.2287
     25  O          4.2650   62.8040   58.0620 O.2    88  GLN88      -0.2864
     26  CB         3.7330   63.3130   54.9310 C.3    88  GLN88       0.0394
     27  CG         4.9290   64.1600   54.6160 C.3    88  GLN88       0.0908
     28  CD         4.5790   65.2840   53.6690 C.2    88  GLN88       0.2608
     29  OE1        4.0360   65.0730   52.5360 O.2    88  GLN88      -0.2717
     30  NE2        4.8560   66.4700   54.1040 N.am   88  GLN88      -0.0878
     31  N          8.4670   65.2400   57.2950 N.3    90  HIS90      -0.1241
     32  CA         9.4950   65.9770   56.5740 C.3    90  HIS90       0.1621
     33  C         10.2020   66.8420   57.5760 C.2    90  HIS90       0.2264
     34  O          9.7680   66.8950   58.7210 O.2    90  HIS90      -0.2867
     35  CB         8.8370   66.8400   55.4600 C.3    90  HIS90       0.0745
     36  CG         7.9180   67.9130   55.9770 C.ar   90  HIS90       0.0817
     37  ND1        6.5420   67.8520   55.8290 N.ar   90  HIS90      -0.2268
     38  CD2        8.1680   69.0550   56.6600 C.ar   90  HIS90       0.1154
     39  CE1        6.0010   68.9470   56.3420 C.ar   90  HIS90       0.1986
     40  NE2        6.9670   69.6750   56.8750 N.ar   90  HIS90      -0.2212
     41  N          3.0580   64.2720   60.0190 N.3   117  ALA117     -0.1245
     42  CA         1.7520   64.7990   59.6440 C.3   117  ALA117      0.1562
     43  C          0.6900   63.7670   59.4260 C.2   117  ALA117      0.2260
     44  O          0.9620   62.7050   58.7830 O.2   117  ALA117     -0.2867
     45  CB         1.8570   65.6860   58.4640 C.3   117  ALA117      0.0290
     46  N         -7.1020   63.1640   52.4490 N.3   127  LEU127     -0.1231
     47  CA        -6.1780   64.2300   52.7520 C.3   127  LEU127      0.1693
     48  C         -6.6220   65.5110   52.0860 C.2   127  LEU127      0.2591
     49  O         -6.7890   66.5250   52.7540 O.2   127  LEU127     -0.2718
     50  CB        -4.7590   63.8810   52.2790 C.3   127  LEU127      0.0284
     51  CG        -3.6980   64.9850   52.4130 C.3   127  LEU127      0.0019
     52  CD1       -3.7340   65.4760   53.8820 C.3   127  LEU127      0.0001
     53  CD2       -2.3150   64.4660   51.9970 C.3   127  LEU127      0.0001
     54  N         -6.7900   65.4550   50.7630 N.am  128  ALA128     -0.1980
     55  CA        -7.2730   66.5650   49.9610 C.3   128  ALA128      0.1597
     56  C         -8.5020   67.2550   50.5950 C.2   128  ALA128      0.2287
     57  O         -8.5620   68.4990   50.6610 O.2   128  ALA128     -0.2864
     58  CB        -7.5510   66.0720   48.5150 C.3   128  ALA128      0.0319
     59  N         -7.1920   68.5430   54.4260 N.3   131  ALA131     -0.1245
     60  CA        -6.2290   69.6800   54.4240 C.3   131  ALA131      0.1562
     61  C         -6.7750   71.0890   54.6920 C.2   131  ALA131      0.2260
     62  O         -6.0310   71.9450   55.1930 O.2   131  ALA131     -0.2867
     63  CB        -5.3950   69.6800   53.1580 C.3   131  ALA131      0.0290
     64  N         -5.9790   68.3790   60.0030 N.3   137  LEU137     -0.1245
     65  CA        -4.6030   67.9020   60.1910 C.3   137  LEU137      0.1561
     66  C         -4.1420   67.9400   61.6550 C.2   137  LEU137      0.2260
     67  O         -4.6700   68.6970   62.4790 O.2   137  LEU137     -0.2867
     68  CB        -3.6220   68.7260   59.3580 C.3   137  LEU137      0.0270
     69  CG        -3.9910   68.9130   57.8930 C.3   137  LEU137      0.0019
     70  CD1       -3.0500   69.9620   57.1730 C.3   137  LEU137      0.0001
     71  CD2       -3.9850   67.5610   57.1870 C.3   137  LEU137      0.0001
     72  N         -0.2060   67.6660   63.3850 N.3   139  VAL139     -0.1245
     73  CA         1.2210   67.5640   63.1270 C.3   139  VAL139      0.1561
     74  C          2.0740   67.5910   64.4290 C.2   139  VAL139      0.2260
     75  O          1.9500   68.4890   65.3020 O.2   139  VAL139     -0.2867
     76  CB         1.6840   68.6580   62.1080 C.3   139  VAL139      0.0252
     77  CG1        3.0940   68.3770   61.6380 C.3   139  VAL139      0.0019
     78  CG2        0.7460   68.7220   60.8760 C.3   139  VAL139      0.0019
     79  N         -0.4760   74.9990   58.4450 N.3   194  LEU194     -0.1245
     80  CA         0.7010   74.7060   57.6300 C.3   194  LEU194      0.1561
     81  C          1.6570   75.8770   57.6750 C.2   194  LEU194      0.2260
     82  O          1.2120   77.0480   57.7150 O.2   194  LEU194     -0.2867
     83  CB         0.2560   74.4900   56.2020 C.3   194  LEU194      0.0270
     84  CG        -0.6130   73.2710   56.0240 C.3   194  LEU194      0.0019
     85  CD1       -0.8550   73.1220   54.5270 C.3   194  LEU194      0.0001
     86  CD2       -0.0490   71.9830   56.7340 C.3   194  LEU194      0.0001
     87  N          3.8770   76.6820   55.2910 N.3   196  HIS196     -0.1241
     88  CA         4.1480   77.2530   54.0000 C.3   196  HIS196      0.1621
     89  C          2.8650   77.0550   53.1540 C.2   196  HIS196      0.2264
     90  O          1.9450   76.3400   53.6000 O.2   196  HIS196     -0.2867
     91  CB         5.3440   76.5920   53.3200 C.3   196  HIS196      0.0745
     92  CG         5.1570   75.1250   53.0760 C.ar  196  HIS196      0.0817
     93  ND1        4.3110   74.6180   52.1160 N.ar  196  HIS196     -0.2268
     94  CD2        5.7270   74.0590   53.6740 C.ar  196  HIS196      0.1154
     95  CE1        4.3530   73.2980   52.1450 C.ar  196  HIS196      0.1986
     96  NE2        5.2080   72.9320   53.0860 N.ar  196  HIS196     -0.2212
     97  N         -0.1140   75.9190   50.8740 N.3   198  PRO198     -0.2116
     98  CA        -1.1860   76.9080   50.9660 C.3   198  PRO198      0.1372
     99  C         -1.5240   77.5570   52.3680 C.2   198  PRO198      0.2244
    100  O         -2.5480   78.2120   52.4630 O.2   198  PRO198     -0.2868
    101  CB        -2.4030   76.1310   50.4280 C.3   198  PRO198      0.0268
    102  CG        -2.1930   74.7550   50.9990 C.3   198  PRO198      0.0207
    103  CD        -0.6480   74.5380   50.9070 C.3   198  PRO198      0.0892
    104  N         -2.9260   76.7300   54.9550 N.3   200  TYR200     -0.1241
    105  CA        -4.2100   76.4080   55.5470 C.3   200  TYR200      0.1605
    106  C         -4.1450   76.4480   57.0610 C.2   200  TYR200      0.2264
    107  O         -3.2540   75.8370   57.6450 O.2   200  TYR200     -0.2867
    108  CB        -4.6680   75.0110   55.0950 C.3   200  TYR200      0.0534
    109  CG        -5.1920   74.9520   53.6820 C.ar  200  TYR200     -0.0201
    110  CD1       -5.9750   75.9760   53.1420 C.ar  200  TYR200     -0.0009
    111  CD2       -4.9090   73.8580   52.8850 C.ar  200  TYR200     -0.0009
    112  CE1       -6.4630   75.8770   51.8260 C.ar  200  TYR200      0.0417
    113  CE2       -5.3750   73.7710   51.6070 C.ar  200  TYR200      0.0417
    114  CZ        -6.1310   74.7580   51.0790 C.ar  200  TYR200      0.1957
    115  OH        -6.5400   74.5820   49.7890 O.3   200  TYR200     -0.2866
@<TRIPOS>BOND
     1    58    55    1
     2   115   114    1
     3    55    56    1
     4    55    54    1
     5   101    98    1
     6   101   102    1
     7    56    57    2
     8     7     9   ar
     9     7     6   ar
    10     4     3    2
    11    54    48   am
    12    97   103    1
    13    97    98    1
    14   103   102    1
    15    98    99    1
    16     1     2    1
    17     9    10   ar
    18   114   113   ar
    19   114   112   ar
    20     5     6    1
    21     5     2    1
    22     6     8   ar
    23   113   111   ar
    24     3     2    1
    25    10     8   ar
    26   112   110   ar
    27    53    51    1
    28    48    47    1
    29    48    49    2
    30    93    95   ar
    31    93    92   ar
    32    95    96   ar
    33    50    51    1
    34    50    47    1
    35    99   100    2
    36    51    52    1
    37    46    47    1
    38    29    28    2
    39   111   109   ar
    40    92    91    1
    41    92    94   ar
    42    96    94   ar
    43   110   109   ar
    44    89    90    2
    45    89    88    1
    46    63    60    1
    47    91    88    1
    48    28    30   am
    49    28    27    1
    50   109   108    1
    51    88    87    1
    52    14    13    2
    53    18    20   ar
    54    18    16   ar
    55    60    59    1
    56    60    61    1
    57    85    84    1
    58    20    21   ar
    59    27    26    1
    60    61    62    2
    61    15    16    1
    62    15    12    1
    63    26    23    1
    64   104   105    1
    65   108   105    1
    66    16    17   ar
    67    13    12    1
    68    13    22   am
    69    35    36    1
    70    35    32    1
    71   105   106    1
    72    12    11    1
    73    21    19   ar
    74    23    22    1
    75    23    24    1
    76    37    36   ar
    77    37    39   ar
    78    36    38   ar
    79    84    83    1
    80    84    86    1
    81    83    80    1
    82    17    19   ar
    83    39    40   ar
    84    32    31    1
    85    32    33    1
    86    38    40   ar
    87    24    25    2
    88   106   107    2
    89    70    69    1
    90    71    69    1
    91    33    34    2
    92    80    81    1
    93    80    79    1
    94    81    82    2
    95    69    68    1
    96    45    42    1
    97    44    43    2
    98    68    65    1
    99    43    42    1
   100    42    41    1
   101    64    65    1
   102    65    66    1
   103    78    76    1
   104    77    76    1
   105    66    67    2
   106    76    73    1
   107    73    72    1
   108    73    74    1
   109    74    75    2
