@<TRIPOS>MOLECULE
tmp/2fw5A01.pdb
 214 205 0 0 0
SMALL
GASTEIGER

@<TRIPOS>ATOM
      1  N         24.4380   -2.9770   17.5360 N.3    12  GLU12      -0.1231
      2  CA        25.5910   -2.3060   16.9070 C.3    12  GLU12       0.1699
      3  C         25.1640   -1.4180   15.7630 C.2    12  GLU12       0.2592
      4  O         25.8100   -0.4100   15.4550 O.2    12  GLU12      -0.2718
      5  CB        26.5990   -3.3260   16.3720 C.3    12  GLU12       0.0402
      6  CG        27.3540   -4.1070   17.4520 C.3    12  GLU12       0.1161
      7  CD        28.1870   -3.2190   18.3800 C.2    12  GLU12       0.3649
      8  OE1       28.2340   -1.9650   18.2120 O.co2  12  GLU12      -0.2457
      9  OE2       28.7400   -3.7750   19.3440 O.co2  12  GLU12      -0.2457
     10  N         24.0600   -1.8090   15.1200 N.am   13  CYS13      -0.1970
     11  CA        23.6170   -1.1630   13.8870 C.3    13  CYS13       0.1712
     12  C         22.5050   -0.1650   14.2060 C.2    13  CYS13       0.2296
     13  O         21.9630    0.4470   13.2800 O.2    13  CYS13      -0.2864
     14  CB        23.1300   -2.1990   12.8710 C.3    13  CYS13       0.0983
     15  SG        24.4940   -3.2240   12.2930 S.3    13  CYS13      -0.0798
     16  N         23.4490    2.2790   16.4900 N.3    15  ALA15      -0.1231
     17  CA        24.2800    3.2880   17.1840 C.3    15  ALA15       0.1694
     18  C         24.1710    4.6710   16.5560 C.2    15  ALA15       0.2592
     19  O         24.1850    5.6940   17.2880 O.2    15  ALA15      -0.2718
     20  CB        25.7680    2.8280   17.2890 C.3    15  ALA15       0.0304
     21  N         23.9180    4.7170   15.2230 N.am   16  CYS16      -0.1956
     22  CA        23.9300    6.0080   14.5130 C.3    16  CYS16       0.1843
     23  C         22.6870    6.3310   13.6700 C.2    16  CYS16       0.2625
     24  O         22.5810    7.4660   13.1430 O.2    16  CYS16      -0.2714
     25  CB        25.1380    6.1040   13.6210 C.3    16  CYS16       0.0997
     26  SG        26.7460    5.9160   14.5200 S.3    16  CYS16      -0.0797
     27  N         21.8060    5.3460   13.5430 N.am   17  HIS17      -0.1973
     28  CA        20.5200    5.4030   12.8500 C.3    17  HIS17       0.1656
     29  C         19.7380    4.1380   13.3310 C.2    17  HIS17       0.2291
     30  O         20.2330    3.3420   14.1370 O.2    17  HIS17      -0.2864
     31  CB        20.7290    5.4120   11.3120 C.3    17  HIS17       0.0771
     32  CG        21.7160    4.3840   10.8330 C.ar   17  HIS17       0.0820
     33  ND1       21.4790    3.0300   10.9360 N.ar   17  HIS17      -0.2267
     34  CD2       22.9430    4.5080   10.2610 C.ar   17  HIS17       0.1154
     35  CE1       22.5010    2.3570   10.4240 C.ar   17  HIS17       0.1986
     36  NE2       23.4040    3.2310    9.9990 N.ar   17  HIS17      -0.2212
     37  N         18.5180   -1.1430   10.3250 N.3    20  TYR20      -0.1241
     38  CA        17.7040   -1.4920    9.1610 C.3    20  TYR20       0.1605
     39  C         17.4690   -3.0170    8.9940 C.2    20  TYR20       0.2264
     40  O         18.4000   -3.8240    9.0810 O.2    20  TYR20      -0.2867
     41  CB        18.3130   -0.9350    7.9020 C.3    20  TYR20       0.0534
     42  CG        18.6090    0.5200    7.9410 C.ar   20  TYR20      -0.0201
     43  CD1       19.9580    0.9920    7.9250 C.ar   20  TYR20      -0.0009
     44  CD2       17.5880    1.4380    7.9760 C.ar   20  TYR20      -0.0009
     45  CE1       20.2380    2.3730    7.9380 C.ar   20  TYR20       0.0417
     46  CE2       17.8600    2.8150    8.0270 C.ar   20  TYR20       0.0417
     47  CZ        19.1920    3.2820    8.0050 C.ar   20  TYR20       0.1957
     48  OH        19.4340    4.6580    8.0160 O.3    20  TYR20      -0.2866
     49  N         17.6950   -5.2470    1.6690 N.3    25  LEU25      -0.1245
     50  CA        18.7990   -5.2240    0.7170 C.3    25  LEU25       0.1561
     51  C         19.1220   -6.6640    0.3360 C.2    25  LEU25       0.2260
     52  O         18.9390   -7.6090    1.1400 O.2    25  LEU25      -0.2867
     53  CB        20.0490   -4.5650    1.3620 C.3    25  LEU25       0.0270
     54  CG        20.1190   -3.0250    1.4460 C.3    25  LEU25       0.0019
     55  CD1       21.4680   -2.6100    2.1230 C.3    25  LEU25       0.0001
     56  CD2       19.8940   -2.2810    0.0400 C.3    25  LEU25       0.0001
     57  N         24.5500   -6.2530    1.6690 N.3    30  TRP30      -0.1241
     58  CA        25.0150   -6.4690    3.0570 C.3    30  TRP30       0.1605
     59  C         26.4680   -6.8990    3.1590 C.2    30  TRP30       0.2264
     60  O         27.1960   -6.3620    3.9440 O.2    30  TRP30      -0.2867
     61  CB        24.1300   -7.4500    3.8050 C.3    30  TRP30       0.0550
     62  CG        22.6890   -6.9990    3.9950 C.ar   30  TRP30       0.0003
     63  CD1       21.5590   -7.6770    3.6360 C.ar   30  TRP30       0.0946
     64  CD2       22.2530   -5.8160    4.6650 C.ar   30  TRP30       0.0152
     65  NE1       20.4330   -6.9750    4.0140 N.ar   30  TRP30      -0.2442
     66  CE2       20.8150   -5.8270    4.6430 C.ar   30  TRP30       0.0810
     67  CE3       22.9290   -4.7100    5.2740 C.ar   30  TRP30       0.0012
     68  CZ2       20.0380   -4.8040    5.2110 C.ar   30  TRP30       0.0191
     69  CZ3       22.1700   -3.7050    5.8430 C.ar   30  TRP30       0.0001
     70  CH2       20.7160   -3.7710    5.8350 C.ar   30  TRP30       0.0015
     71  N         28.6350   -3.7730    2.3810 N.3    33  LEU33      -0.1231
     72  CA        28.5800   -2.8570    3.5840 C.3    33  LEU33       0.1693
     73  C         29.4690   -3.3520    4.7240 C.2    33  LEU33       0.2591
     74  O         30.2600   -2.5680    5.2870 O.2    33  LEU33      -0.2718
     75  CB        27.1490   -2.6150    4.1220 C.3    33  LEU33       0.0284
     76  CG        26.2740   -1.7810    3.1710 C.3    33  LEU33       0.0019
     77  CD1       24.7640   -1.9640    3.5050 C.3    33  LEU33       0.0001
     78  CD2       26.6330   -0.3230    3.1080 C.3    33  LEU33       0.0001
     79  N         29.3350   -4.6530    5.0090 N.am   34  MET34      -0.1979
     80  CA        30.0260   -5.2800    6.1320 C.3    34  MET34       0.1605
     81  C         31.5130   -5.4750    5.9290 C.2    34  MET34       0.2287
     82  O         32.2390   -5.7200    6.9080 O.2    34  MET34      -0.2864
     83  CB        29.3780   -6.5990    6.4280 C.3    34  MET34       0.0413
     84  CG        27.9970   -6.4400    7.0000 C.3    34  MET34       0.0598
     85  SD        27.7150   -5.4070    8.4350 S.3    34  MET34      -0.1393
     86  CE        28.7360   -6.3300    9.6730 C.3    34  MET34       0.0692
     87  N         33.1540   -1.2660    6.8720 N.3    37  LEU37      -0.1245
     88  CA        32.6950   -0.4600    7.9980 C.3    37  LEU37       0.1561
     89  C         33.6820    0.6570    8.4390 C.2    37  LEU37       0.2260
     90  O         33.2330    1.6990    8.9170 O.2    37  LEU37      -0.2867
     91  CB        32.3290   -1.3920    9.1780 C.3    37  LEU37       0.0270
     92  CG        31.1000   -2.3040    8.8890 C.3    37  LEU37       0.0019
     93  CD1       30.8470   -3.2170   10.0830 C.3    37  LEU37       0.0001
     94  CD2       29.8410   -1.5420    8.5490 C.3    37  LEU37       0.0001
     95  N         32.3680    3.9200    6.3360 N.3    40  HIS40      -0.1226
     96  CA        30.9220    3.7150    6.3050 C.3    40  HIS40       0.1752
     97  C         30.2260    5.0820    6.3120 C.2    40  HIS40       0.2596
     98  O         29.9780    5.6440    7.3970 O.2    40  HIS40      -0.2718
     99  CB        30.5060    2.8990    7.5110 C.3    40  HIS40       0.0759
    100  CG        29.0460    2.5610    7.5610 C.ar   40  HIS40       0.0818
    101  ND1       28.4740    1.5680    6.7940 N.ar   40  HIS40      -0.2268
    102  CD2       28.0430    3.0810    8.3110 C.ar   40  HIS40       0.1154
    103  CE1       27.1760    1.5130    7.0450 C.ar   40  HIS40       0.1986
    104  NE2       26.8910    2.4090    7.9780 N.ar   40  HIS40      -0.2212
    105  N         29.8750    5.5720    5.0990 N.am   41  PHE41      -0.1976
    106  CA        29.1250    6.8060    4.8750 C.3    41  PHE41       0.1639
    107  C         29.6940    8.0090    5.6490 C.2    41  PHE41       0.2290
    108  O         28.9490    8.8310    6.2300 O.2    41  PHE41      -0.2864
    109  CB        27.6310    6.6260    5.1670 C.3    41  PHE41       0.0560
    110  CG        26.9700    5.5480    4.3260 C.ar   41  PHE41      -0.0200
    111  CD1       26.7050    4.2630    4.8720 C.ar   41  PHE41      -0.0042
    112  CD2       26.6820    5.7780    2.9640 C.ar   41  PHE41      -0.0042
    113  CE1       26.0830    3.2300    4.0930 C.ar   41  PHE41      -0.0003
    114  CE2       26.0800    4.7770    2.1780 C.ar   41  PHE41      -0.0003
    115  CZ        25.7790    3.4990    2.7350 C.ar   41  PHE41      -0.0000
    116  N         31.6240    7.7390    8.3910 N.3    43  GLU43      -0.1231
    117  CA        31.8790    7.3590    9.7840 C.3    43  GLU43       0.1699
    118  C         32.7000    6.0970    9.8370 C.2    43  GLU43       0.2592
    119  O         32.7300    5.3380    8.8770 O.2    43  GLU43      -0.2718
    120  CB        30.5710    7.0620   10.5390 C.3    43  GLU43       0.0402
    121  CG        29.7480    8.3140   10.7970 C.3    43  GLU43       0.1161
    122  CD        30.4250    9.2870   11.7530 C.2    43  GLU43       0.3649
    123  OE1       31.1870    8.8580   12.6960 O.co2  43  GLU43      -0.2457
    124  OE2       30.1840   10.5000   11.5370 O.co2  43  GLU43      -0.2457
    125  N         33.3790    5.8920   10.9740 N.am   44  ASP44      -0.1960
    126  CA        34.0600    4.6360   11.2660 C.3    44  ASP44       0.1840
    127  C         33.0650    3.8100   12.0900 C.2    44  ASP44       0.2621
    128  O         32.8440    4.1050   13.2770 O.2    44  ASP44      -0.2715
    129  CB        35.3290    4.9040   12.0850 C.3    44  ASP44       0.1450
    130  CG        36.1590    3.6520   12.3090 C.2    44  ASP44       0.3671
    131  OD1       35.6260    2.5300   12.0620 O.co2  44  ASP44      -0.2456
    132  OD2       37.3540    3.7050   12.7500 O.co2  44  ASP44      -0.2456
    133  N         32.4710    2.8030   11.4450 N.am   45  ALA45      -0.1977
    134  CA        31.5250    1.8730   12.0680 C.3    45  ALA45       0.1597
    135  C         32.1450    0.5130   12.3060 C.2    45  ALA45       0.2287
    136  O         31.4010   -0.4630   12.4530 O.2    45  ALA45      -0.2864
    137  CB        30.2800    1.6690   11.1850 C.3    45  ALA45       0.0319
    138  N         33.9290   -2.8630   13.6130 N.3    47  LEU47      -0.1245
    139  CA        33.6300   -3.7270   14.7410 C.3    47  LEU47       0.1561
    140  C         34.7380   -4.7750   14.8690 C.2    47  LEU47       0.2260
    141  O         35.4570   -5.0450   13.9050 O.2    47  LEU47      -0.2867
    142  CB        32.2890   -4.4780   14.4900 C.3    47  LEU47       0.0270
    143  CG        31.0160   -3.6310   14.3090 C.3    47  LEU47       0.0019
    144  CD1       29.9150   -4.4460   13.6570 C.3    47  LEU47       0.0001
    145  CD2       30.5280   -3.0720   15.6160 C.3    47  LEU47       0.0001
    146  N         27.0280  -10.5200   12.5480 N.3    55  ILE55      -0.1245
    147  CA        26.0850   -9.5800   12.0130 C.3    55  ILE55       0.1561
    148  C         25.9340   -9.8190   10.4970 C.2    55  ILE55       0.2260
    149  O         24.8100   -9.9600    9.9760 O.2    55  ILE55      -0.2867
    150  CB        26.4660   -8.1410   12.3620 C.3    55  ILE55       0.0252
    151  CG1       26.2240   -7.8290   13.8800 C.3    55  ILE55       0.0019
    152  CG2       25.6250   -7.1660   11.5130 C.3    55  ILE55       0.0019
    153  CD1       26.8890   -6.4260   14.2850 C.3    55  ILE55       0.0001
    154  N         22.4220  -10.7930    8.4970 N.3    59  LEU59      -0.1245
    155  CA        21.9200   -9.9420    7.3840 C.3    59  LEU59       0.1561
    156  C         21.7830  -10.7100    6.0510 C.2    59  LEU59       0.2260
    157  O         20.7290  -10.6540    5.3780 O.2    59  LEU59      -0.2867
    158  CB        22.7450   -8.6390    7.2190 C.3    59  LEU59       0.0270
    159  CG        22.6610   -7.7040    8.4490 C.3    59  LEU59       0.0019
    160  CD1       23.7680   -6.6910    8.3310 C.3    59  LEU59       0.0001
    161  CD2       21.3360   -6.9950    8.4880 C.3    59  LEU59       0.0001
    162  N         24.0460    0.2930   -2.1820 N.3    83  LEU83      -0.1231
    163  CA        24.5460    0.2890   -0.8020 C.3    83  LEU83       0.1693
    164  C         23.5660    1.0200    0.1280 C.2    83  LEU83       0.2592
    165  O         23.7570    1.0600    1.3430 O.2    83  LEU83      -0.2718
    166  CB        25.9680    0.8660   -0.7380 C.3    83  LEU83       0.0284
    167  CG        27.0350    0.0440   -1.5320 C.3    83  LEU83       0.0019
    168  CD1       28.4800    0.5300   -1.1990 C.3    83  LEU83       0.0001
    169  CD2       26.9080   -1.4760   -1.2170 C.3    83  LEU83       0.0001
    170  N         22.5500    1.6420   -0.4770 N.am   84  ARG84      -0.1966
    171  CA        21.5340    2.3700    0.2670 C.3    84  ARG84       0.1729
    172  C         20.1700    1.7640   -0.0540 C.2    84  ARG84       0.2616
    173  O         19.7900    1.6360   -1.2300 O.2    84  ARG84      -0.2715
    174  CB        21.4830    3.8530   -0.1540 C.3    84  ARG84       0.0348
    175  CG        22.6760    4.7140    0.3730 C.3    84  ARG84       0.0492
    176  CD        22.5220    6.2210    0.0700 C.3    84  ARG84       0.2205
    177  NE        23.5660    7.0370    0.6930 N.pl3  84  ARG84      -0.0865
    178  CZ        23.4940    7.5390    1.9470 C.cat  84  ARG84       0.5346
    179  NH1       22.4390    7.3030    2.6900 N.pl3  84  ARG84       0.1354
    180  NH2       24.4730    8.2810    2.4530 N.pl3  84  ARG84       0.1354
    181  N         19.4330    1.4500    0.9920 N.am   85  ILE85      -0.1963
    182  CA        18.0140    1.1320    0.8670 C.3    85  ILE85       0.1727
    183  C         17.3170    2.3250    0.2090 C.2    85  ILE85       0.2616
    184  O         16.4510    2.1400   -0.6460 O.2    85  ILE85      -0.2715
    185  CB        17.4210    0.9130    2.2860 C.3    85  ILE85       0.0290
    186  CG1       18.0210   -0.3730    2.8940 C.3    85  ILE85       0.0022
    187  CG2       15.9130    0.9190    2.2470 C.3    85  ILE85       0.0023
    188  CD1       17.7030   -0.6260    4.3960 C.3    85  ILE85       0.0001
    189  N         17.6930    3.5590    0.5980 N.am   86  SER86      -0.1950
    190  CA        17.0020    4.7410    0.0570 C.3    86  SER86       0.1924
    191  C         17.2670    5.0100   -1.4560 C.2    86  SER86       0.2314
    192  O         16.6790    5.9150   -2.0140 O.2    86  SER86      -0.2863
    193  CB        17.3160    6.0100    0.8650 C.3    86  SER86       0.2116
    194  OG        18.7430    6.2100    0.9280 O.3    86  SER86      -0.2180
    195  N         17.0270   13.4310    6.4180 N.3   109  SER109     -0.1217
    196  CA        17.5710   12.4540    5.4780 C.3   109  SER109      0.1889
    197  C         16.4870   11.3840    5.2910 C.2   109  SER109      0.2288
    198  O         15.7920   11.0590    6.2680 O.2   109  SER109     -0.2866
    199  CB        18.8220   11.7710    6.0570 C.3   109  SER109      0.2089
    200  OG        19.2440   10.7660    5.1580 O.3   109  SER109     -0.2183
    201  N         17.3170    8.4090    5.0610 N.3   111  SER111     -0.1202
    202  CA        17.8450    7.3970    5.9860 C.3   111  SER111      0.2020
    203  C         17.1830    7.3360    7.3600 C.2   111  SER111      0.2618
    204  O         17.2840    6.3470    8.0710 O.2   111  SER111     -0.2717
    205  CB        19.3750    7.6530    6.2020 C.3   111  SER111      0.2103
    206  OG        20.0250    7.6790    4.9330 O.3   111  SER111     -0.2182
    207  N         16.5110    8.4100    7.7460 N.am  112  ASN112     -0.1974
    208  CA        15.9330    8.5710    9.0840 C.3   112  ASN112      0.1688
    209  C         14.4620    8.1100    9.1550 C.2   112  ASN112      0.2292
    210  O         13.5850    8.9750    9.2990 O.2   112  ASN112     -0.2864
    211  CB        16.0130   10.0700    9.3960 C.3   112  ASN112      0.1181
    212  CG        17.4760   10.5490    9.5160 C.2   112  ASN112      0.2629
    213  OD1       18.3840    9.7370    9.6220 O.2   112  ASN112     -0.2716
    214  ND2       17.6930   11.8660    9.4740 N.am  112  ASN112     -0.0877
@<TRIPOS>BOND
     1   162   163    1
     2   192   191    2
     3   167   169    1
     4   167   168    1
     5   167   166    1
     6   191   190    1
     7   173   172    2
     8   163   166    1
     9   163   164    1
    10   184   183    2
    11   170   164   am
    12   170   171    1
    13   174   171    1
    14   174   175    1
    15   172   171    1
    16   172   181   am
    17    56    54    1
    18   190   189    1
    19   190   193    1
    20   176   175    1
    21   176   177    1
    22   164   165    2
    23   183   189   am
    24   183   182    1
    25    51    50    1
    26    51    52    2
    27   177   178    2
    28    50    53    1
    29    50    49    1
    30   193   194    1
    31   182   181    1
    32   182   185    1
    33    53    54    1
    34    54    55    1
    35    57    58    1
    36   178   180    1
    37   178   179    1
    38   114   115   ar
    39   114   112   ar
    40   187   185    1
    41   185   186    1
    42    71    72    1
    43   115   113   ar
    44   186   188    1
    45   112   110   ar
    46    58    59    1
    47    58    61    1
    48    78    76    1
    49    59    60    2
    50    76    77    1
    51    76    75    1
    52    72    75    1
    53    72    73    1
    54    63    62   ar
    55    63    65   ar
    56    61    62    1
    57    62    64   ar
    58    65    66   ar
    59   113   111   ar
    60   110   111   ar
    61   110   109    1
    62    66    64   ar
    63    66    68   ar
    64    64    67   ar
    65    73    79   am
    66    73    74    2
    67   106   105    1
    68   106   109    1
    69   106   107    1
    70   206   205    1
    71    79    80    1
    72   201   202    1
    73   105    97   am
    74   200   199    1
    75    68    70   ar
    76    67    69   ar
    77   197   196    1
    78   197   198    2
    79   157   156    2
    80   196   199    1
    81   196   195    1
    82   107   108    2
    83    70    69   ar
    84    81    80    1
    85    81    82    2
    86   202   205    1
    87   202   203    1
    88   156   155    1
    89    80    83    1
    90    96    97    1
    91    96    95    1
    92    96    99    1
    93    97    98    2
    94    83    84    1
    95   101   103   ar
    96   101   100   ar
    97    87    88    1
    98    84    85    1
    99   103   104   ar
   100   158   155    1
   101   158   159    1
   102   203   207   am
   103   203   204    2
   104   155   154    1
   105    99   100    1
   106   100   102   ar
   107   207   208    1
   108    41    42    1
   109    41    38    1
   110    43    45   ar
   111    43    42   ar
   112    45    47   ar
   113    42    44   ar
   114    44    46   ar
   115   104   102   ar
   116    88    89    1
   117    88    91    1
   118    47    48    1
   119    47    46   ar
   120   160   159    1
   121   116   117    1
   122    85    86    1
   123    89    90    2
   124   159   161    1
   125    94    92    1
   126   119   118    2
   127    92    91    1
   128    92    93    1
   129    39    40    2
   130    39    38    1
   131   208   209    1
   132   208   211    1
   133   209   210    2
   134    38    37    1
   135   211   212    1
   136   214   212   am
   137   212   213    2
   138   117   118    1
   139   117   120    1
   140   118   125   am
   141   149   148    2
   142    36    34   ar
   143    36    35   ar
   144    34    32   ar
   145    35    33   ar
   146   148   147    1
   147   120   121    1
   148   121   122    1
   149    32    33   ar
   150    32    31    1
   151   125   126    1
   152   137   134    1
   153   126   129    1
   154   126   127    1
   155    31    28    1
   156   133   134    1
   157   133   127   am
   158   152   150    1
   159   124   122   ar
   160   122   123   ar
   161   147   150    1
   162   147   146    1
   163   131   130   ar
   164   134   135    1
   165   129   130    1
   166   127   128    2
   167    15    14    1
   168   135   136    2
   169   130   132   ar
   170   150   151    1
   171    28    29    1
   172    28    27    1
   173    14    11    1
   174    24    23    2
   175    13    12    2
   176    29    30    2
   177    27    23   am
   178   138   139    1
   179    25    22    1
   180    25    26    1
   181   144   143    1
   182    23    22    1
   183   151   153    1
   184    11    12    1
   185    11    10    1
   186   141   140    2
   187   143   142    1
   188   143   145    1
   189   142   139    1
   190    22    21    1
   191   139   140    1
   192    10     3   am
   193    21    18   am
   194     4     3    2
   195     3     2    1
   196     5     2    1
   197     5     6    1
   198    16    17    1
   199    18    17    1
   200    18    19    2
   201     2     1    1
   202    17    20    1
   203     6     7    1
   204     8     7   ar
   205     7     9   ar
