@<TRIPOS>MOLECULE
tmp/2fw5A00.pdb
 203 196 0 0 0
SMALL
GASTEIGER

@<TRIPOS>ATOM
      1  N          9.3360   -6.3530    9.0260 N.3     2  LEU2       -0.1245
      2  CA        10.4540   -5.5260    8.6210 C.3     2  LEU2        0.1561
      3  C         11.0860   -5.0000    9.9030 C.2     2  LEU2        0.2260
      4  O         11.0370   -3.8140   10.1960 O.2     2  LEU2       -0.2867
      5  CB         9.9800   -4.4030    7.6980 C.3     2  LEU2        0.0270
      6  CG         9.5560   -4.8170    6.2910 C.3     2  LEU2        0.0019
      7  CD1        9.2060   -3.6100    5.5030 C.3     2  LEU2        0.0001
      8  CD2       10.6470   -5.6010    5.5680 C.3     2  LEU2        0.0001
      9  N         18.5260    3.9570   12.8510 N.3    18  MET18      -0.1245
     10  CA        17.7680    2.7270   13.0820 C.3    18  MET18       0.1570
     11  C         18.5040    1.5290   12.5110 C.2    18  MET18       0.2261
     12  O         19.2020    1.6550   11.4690 O.2    18  MET18      -0.2867
     13  CB        16.3840    2.8360   12.3850 C.3    18  MET18       0.0387
     14  CG        15.3730    1.7460   12.7490 C.3    18  MET18       0.0595
     15  SD        13.9630    2.0230   11.6880 S.3    18  MET18      -0.1393
     16  CE        14.1690    0.9290   10.2710 C.3    18  MET18       0.0692
     17  N         18.5180   -1.1430   10.3250 N.3    20  TYR20      -0.1241
     18  CA        17.7040   -1.4920    9.1610 C.3    20  TYR20       0.1605
     19  C         17.4690   -3.0170    8.9940 C.2    20  TYR20       0.2264
     20  O         18.4000   -3.8240    9.0810 O.2    20  TYR20      -0.2867
     21  CB        18.3130   -0.9350    7.9020 C.3    20  TYR20       0.0534
     22  CG        18.6090    0.5200    7.9410 C.ar   20  TYR20      -0.0201
     23  CD1       19.9580    0.9920    7.9250 C.ar   20  TYR20      -0.0009
     24  CD2       17.5880    1.4380    7.9760 C.ar   20  TYR20      -0.0009
     25  CE1       20.2380    2.3730    7.9380 C.ar   20  TYR20       0.0417
     26  CE2       17.8600    2.8150    8.0270 C.ar   20  TYR20       0.0417
     27  CZ        19.1920    3.2820    8.0050 C.ar   20  TYR20       0.1957
     28  OH        19.4340    4.6580    8.0160 O.3    20  TYR20      -0.2866
     29  N         15.4840   -5.6150    3.4320 N.3    24  LEU24      -0.1245
     30  CA        15.4510   -4.4930    2.5300 C.3    24  LEU24       0.1561
     31  C         16.6680   -4.3730    1.5500 C.2    24  LEU24       0.2260
     32  O         16.6600   -3.4900    0.7080 O.2    24  LEU24      -0.2867
     33  CB        15.2700   -3.2380    3.3650 C.3    24  LEU24       0.0270
     34  CG        13.8380   -2.7100    3.5760 C.3    24  LEU24       0.0019
     35  CD1       12.6110   -3.6230    3.1860 C.3    24  LEU24       0.0001
     36  CD2       13.7260   -2.0030    4.9540 C.3    24  LEU24       0.0001
     37  N         10.0510   -7.9160   -1.8500 N.3    71  ARG71      -0.1245
     38  CA         9.5130   -6.7650   -2.5380 C.3    71  ARG71       0.1563
     39  C         10.5890   -5.7580   -2.8380 C.2    71  ARG71       0.2260
     40  O         10.5720   -5.1120   -3.8880 O.2    71  ARG71      -0.2867
     41  CB         8.4430   -6.1300   -1.6830 C.3    71  ARG71       0.0307
     42  CG         8.8830   -5.6710   -0.2930 C.3    71  ARG71       0.0489
     43  CD         7.9730   -4.6100    0.3020 C.3    71  ARG71       0.2205
     44  NE         7.6360   -4.8340    1.7070 N.pl3  71  ARG71      -0.0865
     45  CZ         6.7420   -4.0800    2.3800 C.cat  71  ARG71       0.5346
     46  NH1        6.0910   -3.0650    1.7810 N.pl3  71  ARG71       0.1354
     47  NH2        6.4970   -4.3320    3.6570 N.pl3  71  ARG71       0.1354
     48  N         19.4330    1.4500    0.9920 N.3    85  ILE85      -0.1231
     49  CA        18.0140    1.1320    0.8670 C.3    85  ILE85       0.1692
     50  C         17.3170    2.3250    0.2090 C.2    85  ILE85       0.2592
     51  O         16.4510    2.1400   -0.6460 O.2    85  ILE85      -0.2718
     52  CB        17.4210    0.9130    2.2860 C.3    85  ILE85       0.0266
     53  CG1       18.0210   -0.3730    2.8940 C.3    85  ILE85       0.0019
     54  CG2       15.9130    0.9190    2.2470 C.3    85  ILE85       0.0020
     55  CD1       17.7030   -0.6260    4.3960 C.3    85  ILE85       0.0001
     56  N         17.6930    3.5590    0.5980 N.am   86  SER86      -0.1952
     57  CA        17.0020    4.7410    0.0570 C.3    86  SER86       0.1924
     58  C         17.2670    5.0100   -1.4560 C.2    86  SER86       0.2314
     59  O         16.6790    5.9150   -2.0140 O.2    86  SER86      -0.2863
     60  CB        17.3160    6.0100    0.8650 C.3    86  SER86       0.2116
     61  OG        18.7430    6.2100    0.9280 O.3    86  SER86      -0.2180
     62  N         12.5610    0.3040   -5.7780 N.3    90  TRP90      -0.1227
     63  CA        11.3480   -0.0070   -5.0080 C.3    90  TRP90       0.1737
     64  C         11.0570    1.0650   -3.9280 C.2    90  TRP90       0.2595
     65  O          9.8910    1.4990   -3.7600 O.2    90  TRP90      -0.2718
     66  CB        11.4720   -1.4130   -4.3940 C.3    90  TRP90       0.0564
     67  CG        10.5090   -1.6440   -3.2780 C.ar   90  TRP90       0.0003
     68  CD1        9.1590   -2.0610   -3.4020 C.ar   90  TRP90       0.0946
     69  CD2       10.7450   -1.4290   -1.8800 C.ar   90  TRP90       0.0152
     70  NE1        8.6110   -2.1450   -2.1500 N.ar   90  TRP90      -0.2442
     71  CE2        9.5450   -1.7610   -1.2000 C.ar   90  TRP90       0.0810
     72  CE3       11.8710   -0.9890   -1.1140 C.ar   90  TRP90       0.0012
     73  CZ2        9.4250   -1.6690    0.2030 C.ar   90  TRP90       0.0191
     74  CZ3       11.7490   -0.8960    0.2850 C.ar   90  TRP90       0.0001
     75  CH2       10.5260   -1.2640    0.9250 C.ar   90  TRP90       0.0015
     76  N         12.1190    1.5200   -3.2350 N.am   91  PHE91      -0.1976
     77  CA        12.0160    2.5780   -2.2420 C.3    91  PHE91       0.1639
     78  C         11.5650    3.9070   -2.8610 C.2    91  PHE91       0.2290
     79  O         10.6580    4.5620   -2.3540 O.2    91  PHE91      -0.2864
     80  CB        13.3880    2.7730   -1.4960 C.3    91  PHE91       0.0560
     81  CG        13.3510    3.7790   -0.3500 C.ar   91  PHE91      -0.0200
     82  CD1       13.1890    3.3440    0.9760 C.ar   91  PHE91      -0.0042
     83  CD2       13.5560    5.1360   -0.5880 C.ar   91  PHE91      -0.0042
     84  CE1       13.1750    4.2710    2.0350 C.ar   91  PHE91      -0.0003
     85  CE2       13.5620    6.0790    0.5000 C.ar   91  PHE91      -0.0003
     86  CZ        13.3990    5.6210    1.7860 C.ar   91  PHE91      -0.0000
     87  N          7.8600    3.8270   -3.7470 N.3    94  LYS94      -0.1231
     88  CA         7.0140    3.9840   -2.5620 C.3    94  LYS94       0.1693
     89  C          7.0420    5.4010   -1.9760 C.2    94  LYS94       0.2592
     90  O          6.1020    5.7560   -1.2960 O.2    94  LYS94      -0.2718
     91  CB         7.3550    2.9840   -1.4170 C.3    94  LYS94       0.0285
     92  CG         7.4060    1.5570   -1.9240 C.3    94  LYS94       0.0035
     93  CD         6.0610    0.8580   -2.0200 C.3    94  LYS94       0.0206
     94  CE         5.6430    0.5010   -3.4470 C.3    94  LYS94       0.1093
     95  NZ         4.4810    1.3520   -3.9160 N.3    94  LYS94      -0.1314
     96  N          8.1130    6.1810   -2.1860 N.am   95  HIS95      -0.1976
     97  CA         8.2590    7.5250   -1.5760 C.3    95  HIS95       0.1656
     98  C          8.0140    8.7380   -2.5040 C.2    95  HIS95       0.2291
     99  O          7.8440    9.8670   -2.0240 O.2    95  HIS95      -0.2864
    100  CB         9.6350    7.6550   -0.8910 C.3    95  HIS95       0.0771
    101  CG         9.7180    6.8220    0.3470 C.ar   95  HIS95       0.0820
    102  ND1       10.0370    5.4810    0.3100 N.ar   95  HIS95      -0.2267
    103  CD2        9.3550    7.0950    1.6220 C.ar   95  HIS95       0.1154
    104  CE1        9.9080    4.9690    1.5270 C.ar   95  HIS95       0.1986
    105  NE2        9.5090    5.9400    2.3480 N.ar   95  HIS95      -0.2212
    106  N          4.9170   10.9450   -2.3510 N.3    98  GLU98      -0.1231
    107  CA         4.4500   10.9000   -0.9710 C.3    98  GLU98       0.1699
    108  C          5.1880   11.8600   -0.0140 C.2    98  GLU98       0.2592
    109  O          4.6590   12.2610    1.0300 O.2    98  GLU98      -0.2718
    110  CB         4.5490    9.4630   -0.4580 C.3    98  GLU98       0.0402
    111  CG         3.8970    8.4530   -1.4330 C.3    98  GLU98       0.1161
    112  CD         2.3780    8.3280   -1.2320 C.2    98  GLU98       0.3649
    113  OE1        1.8250    9.0290   -0.3160 O.co2  98  GLU98      -0.2457
    114  OE2        1.7400    7.4920   -1.9820 O.co2  98  GLU98      -0.2457
    115  N          6.4170   12.2100   -0.3690 N.am   99  VAL99      -0.1980
    116  CA         7.2460   13.0960    0.4840 C.3    99  VAL99       0.1595
    117  C          7.3910   14.5170   -0.0600 C.2    99  VAL99       0.2287
    118  O          7.9050   14.7410   -1.1430 O.2    99  VAL99      -0.2864
    119  CB         8.6540   12.4710    0.7320 C.3    99  VAL99       0.0276
    120  CG1        9.4960   13.4050    1.6150 C.3    99  VAL99       0.0022
    121  CG2        8.5360   11.0920    1.3370 C.3    99  VAL99       0.0022
    122  N          8.2010   17.8080    4.5550 N.3   103  MET103     -0.1230
    123  CA         8.3840   16.5510    5.2890 C.3   103  MET103      0.1702
    124  C          9.8550   16.1080    5.2320 C.2   103  MET103      0.2592
    125  O         10.4210   15.6590    6.2130 O.2   103  MET103     -0.2718
    126  CB         7.5450   15.4150    4.7000 C.3   103  MET103      0.0401
    127  CG         6.0720   15.5730    4.7890 C.3   103  MET103      0.0596
    128  SD         5.4010   14.2100    3.7180 S.3   103  MET103     -0.1393
    129  CE         6.2340   12.8330    4.6610 C.3   103  MET103      0.0692
    130  N         10.4830   16.2490    4.0560 N.am  104  LEU104     -0.1980
    131  CA        11.8620   15.8570    3.9120 C.3   104  LEU104      0.1596
    132  C         12.8290   16.7400    4.7610 C.2   104  LEU104      0.2287
    133  O         13.7630   16.2390    5.3750 O.2   104  LEU104     -0.2864
    134  CB        12.2360   15.8850    2.4090 C.3   104  LEU104      0.0297
    135  CG        13.7130   15.5400    2.1140 C.3   104  LEU104      0.0022
    136  CD1       14.1520   14.1730    2.6640 C.3   104  LEU104      0.0001
    137  CD2       14.0180   15.6780    0.5640 C.3   104  LEU104      0.0001
    138  N         12.7030   15.4710    8.3430 N.3   107  ALA107     -0.1245
    139  CA        13.3850   14.1740    8.5240 C.3   107  ALA107      0.1562
    140  C         14.9130   14.2800    8.4930 C.2   107  ALA107      0.2260
    141  O         15.5920   13.4290    9.0940 O.2   107  ALA107     -0.2867
    142  CB        12.9230   13.1390    7.4590 C.3   107  ALA107      0.0290
    143  N         17.0270   13.4310    6.4180 N.3   109  SER109     -0.1202
    144  CA        17.5710   12.4540    5.4780 C.3   109  SER109      0.2020
    145  C         16.4870   11.3840    5.2910 C.2   109  SER109      0.2619
    146  O         15.7920   11.0590    6.2680 O.2   109  SER109     -0.2717
    147  CB        18.8220   11.7710    6.0570 C.3   109  SER109      0.2103
    148  OG        19.2440   10.7660    5.1580 O.3   109  SER109     -0.2182
    149  N         16.3620   10.8350    4.0750 N.am  110  MET110     -0.1965
    150  CA        15.5120    9.6320    3.8500 C.3   110  MET110      0.1736
    151  C         16.0310    8.3920    4.5930 C.2   110  MET110      0.2617
    152  O         15.3150    7.4290    4.6960 O.2   110  MET110     -0.2715
    153  CB        15.4110    9.2850    2.3390 C.3   110  MET110      0.0427
    154  CG        14.6190   10.3020    1.5570 C.3   110  MET110      0.0599
    155  SD        12.9410   10.6580    2.2680 S.3   110  MET110     -0.1393
    156  CE        12.0530    8.9860    2.2090 C.3   110  MET110      0.0692
    157  N         17.3170    8.4090    5.0610 N.am  111  SER111     -0.1936
    158  CA        17.8450    7.3970    5.9860 C.3   111  SER111      0.2055
    159  C         17.1830    7.3360    7.3600 C.2   111  SER111      0.2643
    160  O         17.2840    6.3470    8.0710 O.2   111  SER111     -0.2714
    161  CB        19.3750    7.6530    6.2020 C.3   111  SER111      0.2130
    162  OG        20.0250    7.6790    4.9330 O.3   111  SER111     -0.2179
    163  N         16.5110    8.4100    7.7460 N.am  112  ASN112     -0.1957
    164  CA        15.9330    8.5710    9.0840 C.3   112  ASN112      0.1819
    165  C         14.4620    8.1100    9.1550 C.2   112  ASN112      0.2621
    166  O         13.5850    8.9750    9.2990 O.2   112  ASN112     -0.2715
    167  CB        16.0130   10.0700    9.3960 C.3   112  ASN112      0.1195
    168  CG        17.4760   10.5490    9.5160 C.2   112  ASN112      0.2630
    169  OD1       18.3840    9.7370    9.6220 O.2   112  ASN112     -0.2716
    170  ND2       17.6930   11.8660    9.4740 N.am  112  ASN112     -0.0877
    171  N         14.2050    6.8040    9.0120 N.am  113  CYS113     -0.1968
    172  CA        12.8620    6.2600    8.7900 C.3   113  CYS113      0.1712
    173  C         11.8660    6.6180    9.9120 C.2   113  CYS113      0.2296
    174  O         10.6920    6.9910    9.6490 O.2   113  CYS113     -0.2864
    175  CB        12.9010    4.7280    8.7120 C.3   113  CYS113      0.0983
    176  SG        14.3060    3.9720    7.8440 S.3   113  CYS113     -0.0798
    177  N          9.6540    9.7520   10.2320 N.3   116  CYS116     -0.1221
    178  CA         8.4110    9.8250    9.4700 C.3   116  CYS116      0.1808
    179  C          7.4880    8.6680    9.7660 C.2   116  CYS116      0.2601
    180  O          6.3010    8.7960    9.5290 O.2   116  CYS116     -0.2717
    181  CB         8.6320    9.8580    7.9620 C.3   116  CYS116      0.0970
    182  SG         9.4830   11.3450    7.4320 S.3   116  CYS116     -0.0800
    183  N          8.0380    7.5450   10.2100 N.am  117  HIS117     -0.1975
    184  CA         7.2700    6.3390   10.4730 C.3   117  HIS117      0.1656
    185  C          7.3850    6.0420   11.9720 C.2   117  HIS117      0.2291
    186  O          8.4100    5.4680   12.4050 O.2   117  HIS117     -0.2864
    187  CB         7.8710    5.1680    9.7140 C.3   117  HIS117      0.0771
    188  CG         7.8370    5.2900    8.2220 C.ar  117  HIS117      0.0820
    189  ND1        6.6960    5.0700    7.4860 N.ar  117  HIS117     -0.2267
    190  CD2        8.8300    5.5030    7.3260 C.ar  117  HIS117      0.1154
    191  CE1        6.9750    5.1760    6.1970 C.ar  117  HIS117      0.1986
    192  NE2        8.2670    5.4430    6.0710 N.ar  117  HIS117     -0.2212
    193  N          5.3110    0.5040    8.7650 N.3   125  PHE125     -0.1241
    194  CA         5.6530    1.6160    7.8530 C.3   125  PHE125      0.1605
    195  C          4.4800    2.2260    7.0700 C.2   125  PHE125      0.2264
    196  O          3.3450    1.7050    7.1680 O.2   125  PHE125     -0.2867
    197  CB         6.6990    1.1550    6.8360 C.3   125  PHE125      0.0534
    198  CG         8.0080    0.8240    7.4460 C.ar  125  PHE125     -0.0203
    199  CD1        8.3220   -0.5020    7.7980 C.ar  125  PHE125     -0.0042
    200  CD2        8.9570    1.8400    7.7070 C.ar  125  PHE125     -0.0042
    201  CE1        9.5850   -0.8040    8.3780 C.ar  125  PHE125     -0.0003
    202  CE2       10.1860    1.5330    8.2350 C.ar  125  PHE125     -0.0003
    203  CZ        10.4890    0.2360    8.5990 C.ar  125  PHE125     -0.0000
@<TRIPOS>BOND
     1    62    63    1
     2    63    66    1
     3    63    64    1
     4    66    67    1
     5    64    65    2
     6    64    76   am
     7    95    94    1
     8    40    39    2
     9    87    88    1
    10    94    93    1
    11    68    67   ar
    12    68    70   ar
    13    67    69   ar
    14    76    77    1
    15    78    79    2
    16    78    77    1
    17    39    38    1
    18    88    89    1
    19    88    91    1
    20    38    37    1
    21    38    41    1
    22    98    99    2
    23    98    97    1
    24   106   107    1
    25    77    80    1
    26    96    89   am
    27    96    97    1
    28    70    71   ar
    29    93    92    1
    30    59    58    2
    31   114   112   ar
    32    89    90    2
    33    92    91    1
    34    69    71   ar
    35    69    72   ar
    36    41    42    1
    37    97   100    1
    38    80    81    1
    39    58    57    1
    40   111   112    1
    41   111   110    1
    42   112   113   ar
    43    71    73   ar
    44   118   117    2
    45    72    74   ar
    46   107   110    1
    47   107   108    1
    48   100   101    1
    49    51    50    2
    50    83    81   ar
    51    83    85   ar
    52   115   108   am
    53   115   116    1
    54    81    82   ar
    55    42    43    1
    56   117   116    1
    57   108   109    2
    58    57    56    1
    59    57    60    1
    60    73    75   ar
    61    50    56   am
    62    50    49    1
    63    74    75   ar
    64    43    44    1
    65   102   101   ar
    66   102   104   ar
    67   101   103   ar
    68   116   119    1
    69    85    86   ar
    70   137   135    1
    71    32    31    2
    72   119   121    1
    73   119   120    1
    74    60    61    1
    75    49    48    1
    76    49    52    1
    77    82    84   ar
    78   104   105   ar
    79    31    30    1
    80   154   155    1
    81   154   153    1
    82   103   105   ar
    83    44    45    2
    84    46    45    1
    85    86    84   ar
    86   135   134    1
    87   135   136    1
    88   156   155    1
    89    54    52    1
    90    52    53    1
    91   153   150    1
    92    45    47    1
    93   134   131    1
    94    30    33    1
    95    30    29    1
    96    53    55    1
    97    35    34    1
    98    33    34    1
    99    34    36    1
   100   128   129    1
   101   128   127    1
   102   150   149    1
   103   150   151    1
   104   131   130    1
   105   131   132    1
   106   130   124   am
   107   149   145   am
   108   122   123    1
   109   151   152    2
   110   151   157   am
   111   126   127    1
   112   126   123    1
   113   132   133    2
   114   162   161    1
   115   157   158    1
   116   148   147    1
   117   124   123    1
   118   124   125    2
   119   145   144    1
   120   145   146    2
   121   144   147    1
   122   144   143    1
   123     7     6    1
   124     8     6    1
   125   158   161    1
   126   158   159    1
   127   192   191   ar
   128   192   190   ar
   129   191   189   ar
   130     6     5    1
   131   197   198    1
   132   197   194    1
   133   195   196    2
   134   195   194    1
   135   190   188   ar
   136   159   163   am
   137   159   160    2
   138   182   181    1
   139   198   200   ar
   140   198   199   ar
   141   142   139    1
   142   189   188   ar
   143     5     2    1
   144   200   202   ar
   145   163   164    1
   146   199   201   ar
   147   176   175    1
   148   194   193    1
   149    21    22    1
   150    21    18    1
   151    23    25   ar
   152    23    22   ar
   153    25    27   ar
   154    22    24   ar
   155   181   178    1
   156    24    26   ar
   157    27    28    1
   158    27    26   ar
   159   188   187    1
   160   202   203   ar
   161   138   139    1
   162   201   203   ar
   163   140   139    1
   164   140   141    2
   165     2     1    1
   166     2     3    1
   167   175   172    1
   168   172   171    1
   169   172   173    1
   170    19    20    2
   171    19    18    1
   172   171   165   am
   173   164   165    1
   174   164   167    1
   175   165   166    2
   176    18    17    1
   177   167   168    1
   178   178   179    1
   179   178   177    1
   180   170   168   am
   181   168   169    2
   182   180   179    2
   183   174   173    2
   184   187   184    1
   185   179   183   am
   186     3     4    2
   187   183   184    1
   188    16    15    1
   189   184   185    1
   190    12    11    2
   191    15    14    1
   192   185   186    2
   193    13    14    1
   194    13    10    1
   195    11    10    1
   196     9    10    1
