@<TRIPOS>MOLECULE
tmp/2fwpA00.pdb
 115 110 0 0 0
SMALL
GASTEIGER

@<TRIPOS>ATOM
      1  N         29.4950   38.8230 -130.4360 N.3    10  GLY10      -0.1210
      2  CA        30.2380   37.5780 -130.5250 C.3    10  GLY10       0.1956
      3  C         30.4770   36.8220 -129.2350 C.2    10  GLY10       0.2612
      4  O         30.4970   35.5930 -129.2360 O.2    10  GLY10      -0.2717
      5  N         30.6680   37.5390 -128.1340 N.am   11  SER11      -0.1952
      6  CA        30.9040   36.8750 -126.8610 C.3    11  SER11       0.1924
      7  C         30.7820   37.8430 -125.7050 C.2    11  SER11       0.2314
      8  O         30.6510   39.0530 -125.8970 O.2    11  SER11      -0.2863
      9  CB        32.3110   36.2830 -126.8070 C.3    11  SER11       0.2116
     10  OG        33.2710   37.3120 -126.6790 O.3    11  SER11      -0.2180
     11  N         32.9970   38.8280 -123.8950 N.3    13  SER13      -0.1202
     12  CA        34.1180   39.7580 -123.9880 C.3    13  SER13       0.2020
     13  C         33.7280   41.0590 -124.6760 C.2    13  SER13       0.2618
     14  O         34.2990   42.1110 -124.3980 O.2    13  SER13      -0.2717
     15  CB        35.2830   39.1280 -124.7620 C.3    13  SER13       0.2103
     16  OG        35.7960   37.9930 -124.0890 O.3    13  SER13      -0.2182
     17  N         32.7580   40.9860 -125.5820 N.am   14  ASP14      -0.1973
     18  CA        32.3060   42.1700 -126.3060 C.3    14  ASP14       0.1709
     19  C         31.3480   43.0630 -125.5170 C.2    14  ASP14       0.2293
     20  O         31.1050   44.2010 -125.9080 O.2    14  ASP14      -0.2864
     21  CB        31.6060   41.7700 -127.6070 C.3    14  ASP14       0.1436
     22  CG        32.4810   40.9150 -128.5060 C.2    14  ASP14       0.3671
     23  OD1       33.6870   41.2140 -128.6330 O.co2  14  ASP14      -0.2456
     24  OD2       31.9570   39.9490 -129.0930 O.co2  14  ASP14      -0.2456
     25  N         25.6730   35.9600 -129.6730 N.3    37  VAL37      -0.1231
     26  CA        25.5150   35.0820 -130.8260 C.3    37  VAL37       0.1692
     27  C         26.8500   35.0730 -131.5490 C.2    37  VAL37       0.2593
     28  O         27.3690   36.1320 -131.8890 O.2    37  VAL37      -0.2718
     29  CB        24.4370   35.5990 -131.7990 C.3    37  VAL37       0.0266
     30  CG1       24.3420   34.6760 -133.0160 C.3    37  VAL37       0.0020
     31  CG2       23.0970   35.6830 -131.0920 C.3    37  VAL37       0.0020
     32  N         27.4020   33.8840 -131.7700 N.am   38  SER38      -0.1938
     33  CA        28.6840   33.7510 -132.4520 C.3    38  SER38       0.2055
     34  C         28.5090   33.1040 -133.8220 C.2    38  SER38       0.2643
     35  O         27.9670   32.0060 -133.9320 O.2    38  SER38      -0.2714
     36  CB        29.6390   32.9030 -131.6120 C.3    38  SER38       0.2130
     37  OG        30.8590   32.6740 -132.2960 O.3    38  SER38      -0.2179
     38  N         28.9630   33.7870 -134.8690 N.am   39  ALA39      -0.1963
     39  CA        28.8400   33.2460 -136.2200 C.3    39  ALA39       0.1728
     40  C         29.6270   31.9480 -136.3410 C.2    39  ALA39       0.2616
     41  O         29.1650   30.9800 -136.9420 O.2    39  ALA39      -0.2715
     42  CB        29.3550   34.2590 -137.2460 C.3    39  ALA39       0.0334
     43  N         30.8150   31.9290 -135.7470 N.am   40  ASN40      -0.1958
     44  CA        31.6820   30.7620 -135.8250 C.3    40  ASN40       0.1819
     45  C         31.4280   29.6700 -134.7850 C.2    40  ASN40       0.2621
     46  O         31.5690   28.4910 -135.0930 O.2    40  ASN40      -0.2715
     47  CB        33.1450   31.2020 -135.7660 C.3    40  ASN40       0.1195
     48  CG        33.4870   32.2270 -136.8380 C.2    40  ASN40       0.2630
     49  OD1       33.1590   32.0510 -138.0180 O.2    40  ASN40      -0.2716
     50  ND2       34.1560   33.2940 -136.4380 N.am   40  ASN40      -0.0877
     51  N         31.0600   30.0510 -133.5630 N.am   41  ARG41      -0.1977
     52  CA        30.8000   29.0580 -132.5190 C.3    41  ARG41       0.1597
     53  C         29.3410   28.5960 -132.4490 C.2    41  ARG41       0.2287
     54  O         29.0680   27.4760 -132.0230 O.2    41  ARG41      -0.2864
     55  CB        31.2110   29.5930 -131.1430 C.3    41  ARG41       0.0334
     56  CG        32.7110   29.8290 -130.9760 C.3    41  ARG41       0.0492
     57  CD        33.0160   30.4640 -129.6290 C.3    41  ARG41       0.2205
     58  NE        34.4460   30.6820 -129.4260 N.pl3  41  ARG41      -0.0865
     59  CZ        34.9600   31.8010 -128.9240 C.cat  41  ARG41       0.5346
     60  NH1       34.1590   32.7980 -128.5790 N.pl3  41  ARG41       0.1354
     61  NH2       36.2730   31.9260 -128.7670 N.pl3  41  ARG41       0.1354
     62  N         31.5280   42.4020 -132.9340 N.3    65  ALA65      -0.1231
     63  CA        32.4510   41.2820 -132.7750 C.3    65  ALA65       0.1694
     64  C         33.8940   41.7280 -132.9720 C.2    65  ALA65       0.2593
     65  O         34.1590   42.7270 -133.6400 O.2    65  ALA65      -0.2718
     66  CB        32.1100   40.1680 -133.7710 C.3    65  ALA65       0.0304
     67  N         34.8220   40.9780 -132.3840 N.am   66  GLY66      -0.1942
     68  CA        36.2340   41.2890 -132.5120 C.3    66  GLY66       0.2014
     69  C         36.9420   40.2480 -133.3600 C.2    66  GLY66       0.2639
     70  O         36.3260   39.2660 -133.7880 O.2    66  GLY66      -0.2714
     71  N         38.2320   40.4510 -133.6130 N.am   67  GLY67      -0.1939
     72  CA        38.9810   39.5030 -134.4250 C.3    67  GLY67       0.2014
     73  C         38.4630   39.4720 -135.8560 C.2    67  GLY67       0.2639
     74  O         38.1630   40.5180 -136.4290 O.2    67  GLY67      -0.2714
     75  N         38.3570   38.2770 -136.4340 N.am   68  ALA68      -0.1963
     76  CA        37.8610   38.1290 -137.7960 C.3    68  ALA68       0.1728
     77  C         36.4220   38.6500 -137.9090 C.2    68  ALA68       0.2616
     78  O         35.9390   38.9200 -139.0000 O.2    68  ALA68      -0.2715
     79  CB        37.9320   36.6680 -138.2250 C.3    68  ALA68       0.0334
     80  N         35.7420   38.7730 -136.7760 N.am   69  ALA69      -0.1963
     81  CA        34.3770   39.2990 -136.7330 C.3    69  ALA69       0.1728
     82  C         33.4770   38.9610 -137.9240 C.2    69  ALA69       0.2616
     83  O         33.1600   39.8270 -138.7470 O.2    69  ALA69      -0.2715
     84  CB        34.4260   40.8130 -136.5470 C.3    69  ALA69       0.0334
     85  N         33.0530   37.7040 -137.9990 N.am   70  HIS70      -0.1959
     86  CA        32.1730   37.2520 -139.0680 C.3    70  HIS70       0.1787
     87  C         30.7060   37.5180 -138.7430 C.2    70  HIS70       0.2620
     88  O         29.8610   37.5180 -139.6330 O.2    70  HIS70      -0.2715
     89  CB        32.3280   35.7490 -139.2980 C.3    70  HIS70       0.0785
     90  CG        33.6630   35.3560 -139.8480 C.ar   70  HIS70       0.0821
     91  ND1       33.9170   34.1000 -140.3540 N.ar   70  HIS70      -0.2267
     92  CD2       34.8150   36.0540 -139.9790 C.ar   70  HIS70       0.1154
     93  CE1       35.1680   34.0420 -140.7750 C.ar   70  HIS70       0.1986
     94  NE2       35.7350   35.2150 -140.5590 N.ar   70  HIS70      -0.2212
     95  N         30.4110   37.7450 -137.4690 N.am   71  LEU71      -0.1977
     96  CA        29.0350   37.9620 -137.0260 C.3    71  LEU71       0.1596
     97  C         28.1810   38.9840 -137.7860 C.2    71  LEU71       0.2287
     98  O         27.0800   38.6570 -138.2280 O.2    71  LEU71      -0.2864
     99  CB        29.0080   38.3160 -135.5340 C.3    71  LEU71       0.0297
    100  CG        27.6250   38.5840 -134.9350 C.3    71  LEU71       0.0022
    101  CD1       26.7680   37.3270 -135.0350 C.3    71  LEU71       0.0001
    102  CD2       27.7720   39.0310 -133.4840 C.3    71  LEU71       0.0001
    103  N         34.7820   45.3860 -132.6810 N.3    88  VAL88      -0.1245
    104  CA        35.2150   45.3900 -131.2930 C.3    88  VAL88       0.1561
    105  C         36.7420   45.3970 -131.2970 C.2    88  VAL88       0.2260
    106  O         37.3770   44.5920 -131.9860 O.2    88  VAL88      -0.2867
    107  CB        34.7000   44.1490 -130.5330 C.3    88  VAL88       0.0252
    108  CG1       35.2990   44.1070 -129.1350 C.3    88  VAL88       0.0019
    109  CG2       33.1770   44.1900 -130.4460 C.3    88  VAL88       0.0019
    110  N         40.4690   44.7760 -130.3200 N.3    90  SER90      -0.1217
    111  CA        41.1300   43.6600 -129.6830 C.3    90  SER90       0.1889
    112  C         42.6160   43.8490 -129.5080 C.2    90  SER90       0.2288
    113  O         43.2620   44.6110 -130.2280 O.2    90  SER90      -0.2866
    114  CB        40.8670   42.3620 -130.4320 C.3    90  SER90       0.2089
    115  OG        40.0390   41.5250 -129.6430 O.3    90  SER90      -0.2183
@<TRIPOS>BOND
     1    93    94   ar
     2    93    91   ar
     3    94    92   ar
     4    91    90   ar
     5    92    90   ar
     6    90    89    1
     7    88    87    2
     8    89    86    1
     9    86    87    1
    10    86    85    1
    11    78    77    2
    12    83    82    2
    13    87    95   am
    14    98    97    2
    15    79    76    1
    16    49    48    2
    17    85    82   am
    18    82    81    1
    19    77    76    1
    20    77    80   am
    21    76    75    1
    22    97    96    1
    23    95    96    1
    24    42    39    1
    25    96    99    1
    26    41    40    2
    27    48    50   am
    28    48    47    1
    29    80    81    1
    30    81    84    1
    31    75    73   am
    32    74    73    2
    33    40    39    1
    34    40    43   am
    35    39    38    1
    36    73    72    1
    37    44    47    1
    38    44    43    1
    39    44    45    1
    40    99   100    1
    41    46    45    2
    42   101   100    1
    43   100   102    1
    44    38    34   am
    45    45    51   am
    46    72    71    1
    47    35    34    2
    48    34    33    1
    49    70    69    2
    50    66    63    1
    51    65    64    2
    52    71    69   am
    53    51    52    1
    54    69    68    1
    55    30    29    1
    56    64    63    1
    57    64    67   am
    58    62    63    1
    59   103   104    1
    60    52    53    1
    61    52    55    1
    62    68    67    1
    63    33    32    1
    64    33    36    1
    65    53    54    2
    66    37    36    1
    67   106   105    2
    68    28    27    2
    69    29    31    1
    70    29    26    1
    71    32    27   am
    72    27    26    1
    73   105   104    1
    74   104   107    1
    75    55    56    1
    76    56    57    1
    77    26    25    1
    78   107   109    1
    79   107   108    1
    80     2     1    1
    81     2     3    1
    82   114   111    1
    83   114   115    1
    84   110   111    1
    85   113   112    2
    86   111   112    1
    87    57    58    1
    88    58    59    2
    89     4     3    2
    90     3     5   am
    91    24    22   ar
    92    59    61    1
    93    59    60    1
    94    23    22   ar
    95    22    21    1
    96     5     6    1
    97    21    18    1
    98     6     9    1
    99     6     7    1
   100     9    10    1
   101    18    17    1
   102    18    19    1
   103    20    19    2
   104     8     7    2
   105    17    13   am
   106    15    16    1
   107    15    12    1
   108    13    14    2
   109    13    12    1
   110    12    11    1
