@<TRIPOS>MOLECULE
tmp/2fwwD00.pdb
 131 130 0 0 0
SMALL
GASTEIGER

@<TRIPOS>ATOM
      1  N         54.6230    0.2440   67.9000 N.3    28  PHE28      -0.1227
      2  CA        55.4460    1.1970   68.6480 C.3    28  PHE28       0.1736
      3  C         55.8800    2.3750   67.7770 C.2    28  PHE28       0.2595
      4  O         56.1510    3.4540   68.2860 O.2    28  PHE28      -0.2718
      5  CB        56.6810    0.5050   69.2510 C.3    28  PHE28       0.0547
      6  CG        57.5980   -0.1270   68.2260 C.ar   28  PHE28      -0.0202
      7  CD1       57.2930   -1.3730   67.6630 C.ar   28  PHE28      -0.0042
      8  CD2       58.7680    0.5250   67.8250 C.ar   28  PHE28      -0.0042
      9  CE1       58.1360   -1.9530   66.7230 C.ar   28  PHE28      -0.0003
     10  CE2       59.6190   -0.0500   66.8790 C.ar   28  PHE28      -0.0003
     11  CZ        59.3060   -1.2900   66.3260 C.ar   28  PHE28      -0.0000
     12  N         55.9290    2.1680   66.4650 N.am   29  CYS29      -0.1970
     13  CA        56.3330    3.2180   65.5290 C.3    29  CYS29       0.1712
     14  C         55.7430    3.0540   64.1290 C.2    29  CYS29       0.2296
     15  O         55.3660    1.9540   63.7120 O.2    29  CYS29      -0.2864
     16  CB        57.8580    3.2400   65.3710 C.3    29  CYS29       0.0983
     17  SG        58.8100    4.3170   66.4900 S.3    29  CYS29      -0.0798
     18  N         65.6120    6.2310   65.8130 N.3    44  HIS44      -0.1241
     19  CA        65.3570    6.0840   67.2380 C.3    44  HIS44       0.1621
     20  C         64.3170    5.0020   67.4970 C.2    44  HIS44       0.2264
     21  O         64.2330    4.4680   68.6000 O.2    44  HIS44      -0.2867
     22  CB        64.9410    7.4200   67.8900 C.3    44  HIS44       0.0745
     23  CG        63.4990    7.7850   67.7110 C.ar   44  HIS44       0.0817
     24  ND1       63.0760    8.7280   66.7980 N.ar   44  HIS44      -0.2268
     25  CD2       62.3890    7.4000   68.3910 C.ar   44  HIS44       0.1154
     26  CE1       61.7730    8.9160   66.9300 C.ar   44  HIS44       0.1986
     27  NE2       61.3330    8.1210   67.8900 N.ar   44  HIS44      -0.2212
     28  N         49.4380   18.3770   64.8720 N.3   188  ASP188     -0.1225
     29  CA        50.7770   17.8390   65.0980 C.3   188  ASP188      0.1805
     30  C         50.7610   16.3160   65.1990 C.2   188  ASP188      0.2598
     31  O         49.7050   15.6980   65.2840 O.2   188  ASP188     -0.2718
     32  CB        51.3550   18.4390   66.3920 C.3   188  ASP188      0.1424
     33  CG        52.8270   18.1170   66.5980 C.2   188  ASP188      0.3668
     34  OD1       53.5250   17.8020   65.6140 O.co2 188  ASP188     -0.2456
     35  OD2       53.3010   18.2020   67.7500 O.co2 188  ASP188     -0.2456
     36  N         51.9470   15.7190   65.1680 N.am  189  SER189     -0.1938
     37  CA        52.1100   14.2750   65.3150 C.3   189  SER189      0.2055
     38  C         52.3240   14.0890   66.8120 C.2   189  SER189      0.2643
     39  O         52.4230   15.0810   67.5360 O.2   189  SER189     -0.2714
     40  CB        53.3360   13.8020   64.5320 C.3   189  SER189      0.2130
     41  OG        54.4360   14.6690   64.7460 O.3   189  SER189     -0.2179
     42  N         52.3970   12.8500   67.2910 N.am  190  CYS190     -0.1953
     43  CA        52.5830   12.6120   68.7300 C.3   190  CYS190      0.1843
     44  C         53.2500   11.2630   68.9500 C.2   190  CYS190      0.2625
     45  O         53.6000   10.5800   67.9880 O.2   190  CYS190     -0.2714
     46  CB        51.2210   12.6540   69.4320 C.3   190  CYS190      0.0997
     47  SG        51.1530   13.0450   71.2180 S.3   190  CYS190     -0.0797
     48  N         53.4420   10.8970   70.2150 N.am  191  GLN191     -0.1963
     49  CA        54.0440    9.6210   70.5750 C.3   191  GLN191      0.1733
     50  C         53.2730    8.5430   69.8320 C.2   191  GLN191      0.2616
     51  O         52.0390    8.5270   69.8380 O.2   191  GLN191     -0.2715
     52  CB        53.9380    9.3870   72.0840 C.3   191  GLN191      0.0408
     53  CG        55.0110   10.0850   72.9240 C.3   191  GLN191      0.0908
     54  CD        54.9830   11.6070   72.8110 C.2   191  GLN191      0.2608
     55  OE1       53.9200   12.2340   72.8860 O.2   191  GLN191     -0.2717
     56  NE2       56.1600   12.2100   72.6520 N.am  191  GLN191     -0.0878
     57  N         54.0020    7.6450   69.1860 N.am  192  GLY192     -0.1955
     58  CA        53.3590    6.5920   68.4330 C.3   192  GLY192      0.1869
     59  C         53.3290    6.8650   66.9380 C.2   192  GLY192      0.2309
     60  O         53.0390    5.9520   66.1610 O.2   192  GLY192     -0.2863
     61  N         56.0150    8.3800   65.5390 N.3   194  SER194     -0.1217
     62  CA        57.4480    8.3910   65.2070 C.3   194  SER194      0.1889
     63  C         57.7570    7.4260   64.0840 C.2   194  SER194      0.2288
     64  O         57.2050    6.3280   64.0310 O.2   194  SER194     -0.2866
     65  CB        58.3090    7.9860   66.4130 C.3   194  SER194      0.2089
     66  OG        58.5650    9.0700   67.2840 O.3   194  SER194     -0.2183
     67  N         58.7170   11.5510   61.0000 N.3   212  VAL212     -0.1231
     68  CA        58.3560   12.0140   62.3410 C.3   212  VAL212      0.1692
     69  C         59.4950   11.6550   63.2800 C.2   212  VAL212      0.2593
     70  O         59.8000   10.4780   63.4870 O.2   212  VAL212     -0.2718
     71  CB        57.0380   11.3760   62.8500 C.3   212  VAL212      0.0266
     72  CG1       56.7900   11.7970   64.2930 C.3   212  VAL212      0.0020
     73  CG2       55.8710   11.8310   61.9880 C.3   212  VAL212      0.0020
     74  N         60.1200   12.6720   63.8630 N.am  213  SER213     -0.1938
     75  CA        61.2790   12.4190   64.7050 C.3   213  SER213      0.2055
     76  C         61.1990   12.7870   66.1840 C.2   213  SER213      0.2643
     77  O         61.3300   11.9100   67.0280 O.2   213  SER213     -0.2714
     78  CB        62.5080   13.0820   64.0710 C.3   213  SER213      0.2130
     79  OG        63.6870   12.7200   64.7640 O.3   213  SER213     -0.2179
     80  N         61.0140   14.0660   66.5050 N.am  214  TRP214     -0.1959
     81  CA        60.9350   14.4880   67.9020 C.3   214  TRP214      0.1771
     82  C         60.3360   15.8640   68.1090 C.2   214  TRP214      0.2620
     83  O         59.9680   16.5590   67.1670 O.2   214  TRP214     -0.2715
     84  CB        62.3100   14.4810   68.5550 C.3   214  TRP214      0.0590
     85  CG        63.2630   15.4400   67.9280 C.ar  214  TRP214      0.0006
     86  CD1       63.8960   15.2960   66.7250 C.ar  214  TRP214      0.0946
     87  CD2       63.7210   16.6840   68.4780 C.ar  214  TRP214      0.0152
     88  NE1       64.7280   16.3720   66.4960 N.ar  214  TRP214     -0.2442
     89  CE2       64.6390   17.2370   67.5540 C.ar  214  TRP214      0.0810
     90  CE3       63.4460   17.3850   69.6620 C.ar  214  TRP214      0.0012
     91  CZ2       65.2830   18.4510   67.7750 C.ar  214  TRP214      0.0191
     92  CZ3       64.0860   18.5940   69.8820 C.ar  214  TRP214      0.0001
     93  CH2       64.9970   19.1140   68.9380 C.ar  214  TRP214      0.0015
     94  N         60.2460   16.2500   69.3720 N.am  215  GLY215     -0.1954
     95  CA        59.6930   17.5430   69.7190 C.3   215  GLY215      0.1869
     96  C         59.6440   17.6270   71.2280 C.2   215  GLY215      0.2309
     97  O         60.3050   16.8580   71.9190 O.2   215  GLY215     -0.2863
     98  N         56.6180   17.6240   73.5380 N.3   217  GLY217     -0.1210
     99  CA        55.1900   17.5980   73.7580 C.3   217  GLY217      0.1956
    100  C         54.4880   17.6810   72.4150 C.2   217  GLY217      0.2612
    101  O         55.0940   18.0680   71.4140 O.2   217  GLY217     -0.2717
    102  N         53.2120   17.3200   72.3960 N.am  218  CYS218     -0.1970
    103  CA        52.4200   17.3320   71.1760 C.3   218  CYS218      0.1712
    104  C         51.5820   18.6050   71.0710 C.2   218  CYS218      0.2296
    105  O         50.8860   18.9870   72.0140 O.2   218  CYS218     -0.2864
    106  CB        51.5220   16.0870   71.1480 C.3   218  CYS218      0.0983
    107  SG        52.4720   14.5660   71.4860 S.3   218  CYS218     -0.0798
    108  N         56.4960   20.4550   65.8620 N.3   225  GLY225     -0.1210
    109  CA        57.0280   19.1340   65.5840 C.3   225  GLY225      0.1956
    110  C         58.2780   19.1380   64.7270 C.2   225  GLY225      0.2612
    111  O         58.3960   19.9400   63.7990 O.2   225  GLY225     -0.2717
    112  N         59.2060   18.2350   65.0280 N.am  226  ILE226     -0.1965
    113  CA        60.4560   18.1340   64.2790 C.3   226  ILE226      0.1727
    114  C         60.5650   16.8000   63.5210 C.2   226  ILE226      0.2616
    115  O         60.4000   15.7260   64.1060 O.2   226  ILE226     -0.2715
    116  CB        61.6790   18.2840   65.2150 C.3   226  ILE226      0.0290
    117  CG1       61.5810   19.6030   65.9900 C.3   226  ILE226      0.0022
    118  CG2       62.9680   18.2790   64.3980 C.3   226  ILE226      0.0023
    119  CD1       61.5210   20.8480   65.1080 C.3   226  ILE226      0.0001
    120  N         60.8550   16.8890   62.2220 N.am  227  TYR227     -0.1974
    121  CA        60.9810   15.7280   61.3450 C.3   227  TYR227      0.1639
    122  C         62.3670   15.6420   60.7180 C.2   227  TYR227      0.2290
    123  O         63.0190   16.6680   60.4960 O.2   227  TYR227     -0.2864
    124  CB        59.9650   15.8140   60.2060 C.3   227  TYR227      0.0560
    125  CG        58.5240   15.9400   60.6450 C.ar  227  TYR227     -0.0198
    126  CD1       58.0460   17.1120   61.2440 C.ar  227  TYR227     -0.0009
    127  CD2       57.6350   14.8870   60.4670 C.ar  227  TYR227     -0.0009
    128  CE1       56.7160   17.2210   61.6550 C.ar  227  TYR227      0.0417
    129  CE2       56.3030   14.9880   60.8710 C.ar  227  TYR227      0.0417
    130  CZ        55.8540   16.1520   61.4630 C.ar  227  TYR227      0.1957
    131  OH        54.5440   16.2360   61.8720 O.3   227  TYR227     -0.2866
@<TRIPOS>BOND
     1   124   125    1
     2   124   121    1
     3   127   125   ar
     4   127   129   ar
     5   123   122    2
     6   125   126   ar
     7   122   121    1
     8   129   130   ar
     9    67    68    1
    10   126   128   ar
    11   121   120    1
    12   130   128   ar
    13   130   131    1
    14    73    71    1
    15   120   114   am
    16    68    71    1
    17    68    69    1
    18    71    72    1
    19    69    70    2
    20    69    74   am
    21   114   115    2
    22   114   113    1
    23    15    14    2
    24   111   110    2
    25    74    75    1
    26    64    63    2
    27    78    75    1
    28    78    79    1
    29    63    62    1
    30    14    13    1
    31   113   112    1
    32   113   116    1
    33   118   116    1
    34    40    41    1
    35    40    37    1
    36    75    76    1
    37   110   112   am
    38   110   109    1
    39    28    29    1
    40    29    30    1
    41    29    32    1
    42   119   117    1
    43    36    30   am
    44    36    37    1
    45    30    31    2
    46    62    61    1
    47    62    65    1
    48   116   117    1
    49    37    38    1
    50    16    13    1
    51    16    17    1
    52    13    12    1
    53   109   108    1
    54    34    33   ar
    55    18    19    1
    56    60    59    2
    57    76    80   am
    58    76    77    2
    59    11     9   ar
    60    11    10   ar
    61    32    33    1
    62    65    66    1
    63    12     3   am
    64    88    86   ar
    65    88    89   ar
    66    80    81    1
    67    33    35   ar
    68     9     7   ar
    69    86    85   ar
    70    24    26   ar
    71    24    23   ar
    72    38    42   am
    73    38    39    2
    74    10     8   ar
    75    26    27   ar
    76    59    58    1
    77    83    82    2
    78    19    20    1
    79    19    22    1
    80    42    43    1
    81    20    21    2
    82    89    91   ar
    83    89    87   ar
    84     7     6   ar
    85    23    22    1
    86    23    25   ar
    87    91    93   ar
    88     3     4    2
    89     3     2    1
    90     8     6   ar
    91    27    25   ar
    92     1     2    1
    93    81    82    1
    94    81    84    1
    95    85    87   ar
    96    85    84    1
    97    45    44    2
    98    82    94   am
    99     6     5    1
   100    58    57    1
   101    87    90   ar
   102     2     5    1
   103    43    44    1
   104    43    46    1
   105    93    92   ar
   106    44    48   am
   107    57    50   am
   108    94    95    1
   109    46    47    1
   110    90    92   ar
   111    95    96    1
   112    50    51    2
   113    50    49    1
   114    48    49    1
   115    49    52    1
   116   104   103    1
   117   104   105    2
   118   106   103    1
   119   106   107    1
   120   103   102    1
   121    47   107    1
   122    96    97    2
   123   101   100    2
   124    52    53    1
   125   102   100   am
   126   100    99    1
   127    56    54   am
   128    54    55    2
   129    54    53    1
   130    98    99    1
