@<TRIPOS>MOLECULE
tmp/2fwzA00.pdb
 170 159 0 0 0
SMALL
GASTEIGER

@<TRIPOS>ATOM
      1  N         -0.8970   11.4970   16.2780 N.3    33  LEU33      -0.1245
      2  CA        -1.4580   12.0300   17.5170 C.3    33  LEU33       0.1561
      3  C         -2.7520   11.3020   17.9240 C.2    33  LEU33       0.2260
      4  O         -2.9590   11.0060   19.0920 O.2    33  LEU33      -0.2867
      5  CB        -1.7130   13.5430   17.3590 C.3    33  LEU33       0.0270
      6  CG        -0.4850   14.4250   17.0860 C.3    33  LEU33       0.0019
      7  CD1       -0.9090   15.8730   16.8440 C.3    33  LEU33       0.0001
      8  CD2        0.4670   14.3510   18.2550 C.3    33  LEU33       0.0001
      9  N         -1.8190    8.0420   19.3810 N.3    36  ASN36      -0.1225
     10  CA        -1.3240    8.1560   20.7470 C.3    36  ASN36       0.1785
     11  C         -2.5120    8.2880   21.6980 C.2    36  ASN36       0.2597
     12  O         -2.5300    7.6780   22.7670 O.2    36  ASN36      -0.2718
     13  CB        -0.3660    9.3530   20.8960 C.3    36  ASN36       0.1169
     14  CG         1.0140    9.0760   20.2940 C.2    36  ASN36       0.2627
     15  OD1        1.3930    7.9250   20.0910 O.2    36  ASN36      -0.2716
     16  ND2        1.7650   10.1280   20.0210 N.am   36  ASN36      -0.0877
     17  N         -3.5080    9.0740   21.3030 N.am   37  SER37      -0.1952
     18  CA        -4.7100    9.2380   22.1240 C.3    37  SER37       0.1924
     19  C         -5.3870    7.8810   22.2850 C.2    37  SER37       0.2314
     20  O         -5.7450    7.4690   23.3930 O.2    37  SER37      -0.2863
     21  CB        -5.6810   10.2100   21.4570 C.3    37  SER37       0.2116
     22  OG        -5.1760   11.5270   21.4880 O.3    37  SER37      -0.2180
     23  N         -4.1320    4.9870   22.1690 N.3    39  ASP39      -0.1225
     24  CA        -3.3590    4.1580   23.0820 C.3    39  ASP39       0.1805
     25  C         -3.6140    4.5420   24.5420 C.2    39  ASP39       0.2597
     26  O         -3.7830    3.6760   25.3950 O.2    39  ASP39      -0.2718
     27  CB        -1.8710    4.2680   22.7740 C.3    39  ASP39       0.1424
     28  CG        -1.4930    3.6460   21.4440 C.2    39  ASP39       0.3668
     29  OD1       -2.3060    2.9010   20.8520 O.co2  39  ASP39      -0.2456
     30  OD2       -0.3560    3.8910   20.9920 O.co2  39  ASP39      -0.2456
     31  N         -3.6370    5.8410   24.8290 N.am   40  ALA40      -0.1979
     32  CA        -3.8900    6.3300   26.1870 C.3    40  ALA40       0.1597
     33  C         -5.2720    5.8790   26.6780 C.2    40  ALA40       0.2287
     34  O         -5.4370    5.4580   27.8270 O.2    40  ALA40      -0.2864
     35  CB        -3.8060    7.8370   26.2140 C.3    40  ALA40       0.0319
     36  N         -5.3150    2.2420   27.6070 N.3    43  LYS43      -0.1245
     37  CA        -4.7120    1.9730   28.9020 C.3    43  LYS43       0.1561
     38  C         -5.6060    2.2830   30.0870 C.2    43  LYS43       0.2260
     39  O         -5.6780    1.4970   31.0270 O.2    43  LYS43      -0.2867
     40  CB        -3.3880    2.7180   29.0350 C.3    43  LYS43       0.0271
     41  CG        -2.5760    2.2850   30.2370 C.3    43  LYS43       0.0035
     42  CD        -1.1560    2.8240   30.1870 C.3    43  LYS43       0.0206
     43  CE        -0.3350    2.3020   31.3590 C.3    43  LYS43       0.1093
     44  NZ         1.0740    2.7860   31.3200 N.3    43  LYS43      -0.1314
     45  N         -8.0750   14.2200   24.3150 N.3    78  ASP78      -0.1239
     46  CA        -8.5170   12.8790   24.6660 C.3    78  ASP78       0.1674
     47  C         -8.7520   12.7720   26.1700 C.2    78  ASP78       0.2266
     48  O         -8.2730   13.5870   26.9380 O.2    78  ASP78      -0.2867
     49  CB        -7.4910   11.8180   24.2180 C.3    78  ASP78       0.1410
     50  CG        -6.2310   11.8370   25.0460 C.2    78  ASP78       0.3668
     51  OD1       -6.3320   11.7300   26.2910 O.co2  78  ASP78      -0.2456
     52  OD2       -5.1320   11.9590   24.4550 O.co2  78  ASP78      -0.2456
     53  N         -5.2980    8.0800   29.7360 N.3    81  ILE81      -0.1231
     54  CA        -4.5660    7.9460   30.9850 C.3    81  ILE81       0.1692
     55  C         -3.8420    9.2060   31.4810 C.2    81  ILE81       0.2593
     56  O         -3.5830    9.3420   32.6720 O.2    81  ILE81      -0.2718
     57  CB        -3.5490    6.7740   30.8900 C.3    81  ILE81       0.0266
     58  CG1       -2.9510    6.4870   32.2630 C.3    81  ILE81       0.0019
     59  CG2       -2.4720    7.0840   29.8810 C.3    81  ILE81       0.0020
     60  CD1       -3.7670    5.4980   33.0650 C.3    81  ILE81       0.0001
     61  N         -3.5230   10.1290   30.5820 N.am   82  GLY82      -0.1942
     62  CA        -2.8260   11.3300   30.9980 C.3    82  GLY82       0.2014
     63  C         -1.3740   11.0280   31.3210 C.2    82  GLY82       0.2638
     64  O         -0.9920    9.8640   31.4070 O.2    82  GLY82      -0.2714
     65  N         -0.5610   12.0650   31.5010 N.am   83  MET83      -0.1976
     66  CA         0.8520   11.8660   31.8100 C.3    83  MET83       0.1605
     67  C          1.2460   12.5470   33.1180 C.2    83  MET83       0.2287
     68  O          0.6900   13.5720   33.4720 O.2    83  MET83      -0.2864
     69  CB         1.7160   12.4110   30.6750 C.3    83  MET83       0.0413
     70  CG         1.4710   11.7280   29.3410 C.3    83  MET83       0.0598
     71  SD         2.1860   12.6100   27.9610 S.3    83  MET83      -0.1393
     72  CE         0.9770   13.8950   27.7150 C.3    83  MET83       0.0692
     73  N          6.7370   11.6340   33.7250 N.3    87  ASP87      -0.1225
     74  CA         6.6340   11.2130   32.3420 C.3    87  ASP87       0.1805
     75  C          7.1980   12.3290   31.4770 C.2    87  ASP87       0.2597
     76  O          8.0820   12.1130   30.6390 O.2    87  ASP87      -0.2718
     77  CB         5.1710   11.0100   31.9180 C.3    87  ASP87       0.1424
     78  CG         4.5810    9.6820   32.3690 C.2    87  ASP87       0.3668
     79  OD1        5.3250    8.6990   32.5280 O.co2  87  ASP87      -0.2456
     80  OD2        3.3440    9.6170   32.5320 O.co2  87  ASP87      -0.2456
     81  N          6.6560   13.5260   31.6890 N.am   88  LEU88      -0.1979
     82  CA         7.0130   14.7120   30.9160 C.3    88  LEU88       0.1596
     83  C          8.4630   15.1640   30.9680 C.2    88  LEU88       0.2287
     84  O          8.9840   15.6870   29.9880 O.2    88  LEU88      -0.2864
     85  CB         6.1190   15.8850   31.3330 C.3    88  LEU88       0.0297
     86  CG         4.6170   15.7470   31.0940 C.3    88  LEU88       0.0022
     87  CD1        3.8930   16.8960   31.7570 C.3    88  LEU88       0.0001
     88  CD2        4.3210   15.7130   29.5940 C.3    88  LEU88       0.0001
     89  N          9.4240    9.6550   29.4880 N.3    92  LEU92      -0.1245
     90  CA         9.0850    9.5520   28.0820 C.3    92  LEU92       0.1561
     91  C         10.3030    9.8280   27.2210 C.2    92  LEU92       0.2260
     92  O         10.4090    9.3190   26.1140 O.2    92  LEU92      -0.2867
     93  CB         7.9290   10.4970   27.7320 C.3    92  LEU92       0.0270
     94  CG         6.5820   10.0870   28.3500 C.3    92  LEU92       0.0019
     95  CD1        5.5640   11.1730   28.1640 C.3    92  LEU92       0.0001
     96  CD2        6.1060    8.7880   27.7250 C.3    92  LEU92       0.0001
     97  N         11.9750    7.4230   24.4310 N.3    96  ALA96      -0.1245
     98  CA        12.1340    8.0110   23.1060 C.3    96  ALA96       0.1562
     99  C         13.5530    7.9450   22.5370 C.2    96  ALA96       0.2260
    100  O         13.7380    8.0480   21.3230 O.2    96  ALA96      -0.2867
    101  CB        11.6570    9.4400   23.1300 C.3    96  ALA96       0.0290
    102  N          7.7830    4.5510   18.0250 N.3   120  GLY120     -0.1210
    103  CA         7.3040    5.1870   19.2380 C.3   120  GLY120      0.1956
    104  C          7.5750    6.6670   19.4070 C.2   120  GLY120      0.2611
    105  O          7.5230    7.1880   20.5200 O.2   120  GLY120     -0.2717
    106  N          7.8510    7.3720   18.3210 N.am  121  VAL121     -0.1979
    107  CA         8.1160    8.7950   18.4500 C.3   121  VAL121      0.1595
    108  C          7.2800    9.6830   17.5310 C.2   121  VAL121      0.2287
    109  O          7.7040   10.7790   17.1620 O.2   121  VAL121     -0.2864
    110  CB         9.6110    9.0830   18.2520 C.3   121  VAL121      0.0276
    111  CG1       10.3870    8.4880   19.3870 C.3   121  VAL121      0.0022
    112  CG2       10.0870    8.5140   16.9570 C.3   121  VAL121      0.0022
    113  N          4.6960   11.4810   18.1720 N.3   123  PHE123     -0.1227
    114  CA         4.3530   12.7680   18.7700 C.3   123  PHE123      0.1736
    115  C          5.1630   13.9020   18.1580 C.2   123  PHE123      0.2595
    116  O          4.6380   14.9710   17.8790 O.2   123  PHE123     -0.2718
    117  CB         4.6090   12.7300   20.2770 C.3   123  PHE123      0.0547
    118  CG         4.5410   14.0750   20.9380 C.ar  123  PHE123     -0.0202
    119  CD1        3.3180   14.6520   21.2480 C.ar  123  PHE123     -0.0042
    120  CD2        5.7090   14.7730   21.2410 C.ar  123  PHE123     -0.0042
    121  CE1        3.2520   15.8990   21.8440 C.ar  123  PHE123     -0.0003
    122  CE2        5.6540   16.0290   21.8420 C.ar  123  PHE123     -0.0003
    123  CZ         4.4240   16.5930   22.1420 C.ar  123  PHE123     -0.0000
    124  N          6.4480   13.6690   17.9390 N.am  124  TYR124     -0.1976
    125  CA         7.2900   14.7110   17.3900 C.3   124  TYR124      0.1639
    126  C          6.9750   15.0840   15.9430 C.2   124  TYR124      0.2290
    127  O          7.4790   16.0850   15.4300 O.2   124  TYR124     -0.2864
    128  CB         8.7520   14.3170   17.5770 C.3   124  TYR124      0.0560
    129  CG         9.1080   14.1900   19.0400 C.ar  124  TYR124     -0.0198
    130  CD1        9.3130   15.3240   19.8330 C.ar  124  TYR124     -0.0009
    131  CD2        9.1920   12.9380   19.6490 C.ar  124  TYR124     -0.0009
    132  CE1        9.5920   15.2080   21.2000 C.ar  124  TYR124      0.0417
    133  CE2        9.4670   12.8150   21.0080 C.ar  124  TYR124      0.0417
    134  CZ         9.6650   13.9500   21.7750 C.ar  124  TYR124      0.1957
    135  OH         9.9320   13.8130   23.1110 O.3   124  TYR124     -0.2866
    136  N          1.2710   21.1700   25.5370 N.3   135  VAL135     -0.1245
    137  CA         0.5720   19.9740   25.9760 C.3   135  VAL135      0.1561
    138  C          0.0360   20.0800   27.3890 C.2   135  VAL135      0.2260
    139  O          0.8010   20.2130   28.3400 O.2   135  VAL135     -0.2867
    140  CB         1.4850   18.7400   25.8880 C.3   135  VAL135      0.0252
    141  CG1        0.7850   17.5230   26.4760 C.3   135  VAL135      0.0019
    142  CG2        1.8680   18.4870   24.4420 C.3   135  VAL135      0.0019
    143  N          3.0930   21.3640   29.4330 N.3   147  TRP147     -0.1241
    144  CA         4.4110   21.1290   28.8370 C.3   147  TRP147      0.1605
    145  C          4.4100   21.9680   27.5810 C.2   147  TRP147      0.2264
    146  O          3.3740   22.0990   26.9230 O.2   147  TRP147     -0.2867
    147  CB         4.5430   19.6510   28.4580 C.3   147  TRP147      0.0550
    148  CG         5.7770   19.2630   27.6870 C.ar  147  TRP147      0.0003
    149  CD1        6.8930   18.6790   28.1870 C.ar  147  TRP147      0.0946
    150  CD2        5.9770   19.3590   26.2680 C.ar  147  TRP147      0.0152
    151  NE1        7.7760   18.3950   27.1770 N.ar  147  TRP147     -0.2442
    152  CE2        7.2380   18.8020   25.9870 C.ar  147  TRP147      0.0810
    153  CE3        5.2080   19.8590   25.2090 C.ar  147  TRP147      0.0012
    154  CZ2        7.7530   18.7270   24.6900 C.ar  147  TRP147      0.0191
    155  CZ3        5.7220   19.7870   23.9180 C.ar  147  TRP147      0.0001
    156  CH2        6.9790   19.2270   23.6700 C.ar  147  TRP147      0.0015
    157  N         -5.3420   14.3340   27.9810 N.3   169  THR169     -0.1218
    158  CA        -4.3000   15.1220   27.3590 C.3   169  THR169      0.1862
    159  C         -4.8330   16.0090   26.2540 C.2   169  THR169      0.2287
    160  O         -5.7440   15.6350   25.5170 O.2   169  THR169     -0.2866
    161  CB        -3.2260   14.2260   26.7340 C.3   169  THR169      0.1770
    162  OG1       -2.6530   13.4100   27.7430 O.3   169  THR169     -0.2211
    163  CG2       -2.1350   15.0610   26.0820 C.3   169  THR169      0.0375
    164  N         -3.2590   18.2220   23.1270 N.3   171  VAL171     -0.1245
    165  CA        -2.1040   18.6110   22.3370 C.3   171  VAL171      0.1561
    166  C         -2.5390   19.7990   21.4920 C.2   171  VAL171      0.2260
    167  O         -3.3280   19.6600   20.5590 O.2   171  VAL171     -0.2867
    168  CB        -1.6160   17.4910   21.4080 C.3   171  VAL171      0.0252
    169  CG1       -0.3930   17.9770   20.6340 C.3   171  VAL171      0.0019
    170  CG2       -1.2540   16.2500   22.2210 C.3   171  VAL171      0.0019
@<TRIPOS>BOND
     1   127   126    2
     2   126   125    1
     3     1     2    1
     4     7     6    1
     5   112   110    1
     6     6     5    1
     7     6     8    1
     8   109   108    2
     9     5     2    1
    10   125   128    1
    11   125   124    1
    12     2     3    1
    13   108   107    1
    14   128   129    1
    15   116   115    2
    16     3     4    2
    17   124   115   am
    18   102   103    1
    19   115   114    1
    20   113   114    1
    21   110   107    1
    22   110   111    1
    23   106   107    1
    24   106   104   am
    25   114   117    1
    26   129   131   ar
    27   129   130   ar
    28   103   104    1
    29     9    10    1
    30   104   105    2
    31   131   133   ar
    32   130   132   ar
    33    16    14   am
    34    15    14    2
    35   117   118    1
    36    14    13    1
    37   167   166    2
    38   169   168    1
    39    10    13    1
    40    10    11    1
    41    29    28   ar
    42   118   120   ar
    43   118   119   ar
    44    30    28   ar
    45   133   134   ar
    46   132   134   ar
    47   120   122   ar
    48   119   121   ar
    49    17    11   am
    50    17    18    1
    51   100    99    2
    52   168   170    1
    53   168   165    1
    54    28    27    1
    55    21    22    1
    56    21    18    1
    57   166   165    1
    58    11    12    2
    59   134   135    1
    60   122   123   ar
    61   121   123   ar
    62    18    19    1
    63    23    24    1
    64    19    20    2
    65   165   164    1
    66    99    98    1
    67    27    24    1
    68    24    25    1
    69    98   101    1
    70    98    97    1
    71   156   155   ar
    72   156   154   ar
    73   155   153   ar
    74    49    46    1
    75    49    50    1
    76    45    46    1
    77   142   140    1
    78    52    50   ar
    79    25    31   am
    80    25    26    2
    81    46    47    1
    82   154   152   ar
    83    31    32    1
    84    50    51   ar
    85   153   150   ar
    86   160   159    2
    87   136   137    1
    88   140   137    1
    89   140   141    1
    90   137   138    1
    91   152   150   ar
    92   152   151   ar
    93   163   161    1
    94    92    91    2
    95    47    48    2
    96    32    35    1
    97    32    33    1
    98   159   158    1
    99   150   148   ar
   100    33    34    2
   101   161   158    1
   102   161   162    1
   103   146   145    2
   104   151   149   ar
   105    91    90    1
   106   158   157    1
   107   138   139    2
   108   145   144    1
   109    36    37    1
   110   148   149   ar
   111   148   147    1
   112    72    71    1
   113    96    94    1
   114    93    90    1
   115    93    94    1
   116    71    70    1
   117    90    89    1
   118    95    94    1
   119   147   144    1
   120   144   143    1
   121    37    40    1
   122    37    38    1
   123    40    41    1
   124    70    69    1
   125    88    86    1
   126    53    54    1
   127    59    57    1
   128    84    83    2
   129    38    39    2
   130    42    41    1
   131    42    43    1
   132    61    62    1
   133    61    55   am
   134    76    75    2
   135    69    66    1
   136    57    54    1
   137    57    58    1
   138    82    83    1
   139    82    85    1
   140    82    81    1
   141    54    55    1
   142    62    63    1
   143    86    85    1
   144    86    87    1
   145    44    43    1
   146    63    64    2
   147    63    65   am
   148    75    81   am
   149    75    74    1
   150    55    56    2
   151    65    66    1
   152    66    67    1
   153    77    74    1
   154    77    78    1
   155    58    60    1
   156    74    73    1
   157    78    79   ar
   158    78    80   ar
   159    67    68    2
