@<TRIPOS>MOLECULE
tmp/2fx4A00.pdb
 113 112 0 0 0
SMALL
GASTEIGER

@<TRIPOS>ATOM
      1  N         39.7770    7.3710   32.1580 N.3    40  HIS40      -0.1241
      2  CA        39.7250    6.2700   33.1490 C.3    40  HIS40       0.1621
      3  C         41.0000    6.1320   33.9930 C.2    40  HIS40       0.2264
      4  O         41.0550    5.2640   34.8450 O.2    40  HIS40      -0.2867
      5  CB        39.3990    4.9380   32.4430 C.3    40  HIS40       0.0745
      6  CG        40.4880    4.1710   31.7050 C.ar   40  HIS40       0.0817
      7  ND1       40.7160    4.1300   30.4120 N.ar   40  HIS40      -0.2268
      8  CD2       41.4060    3.3610   32.3260 C.ar   40  HIS40       0.1154
      9  CE1       41.7340    3.3180   30.2270 C.ar   40  HIS40       0.1986
     10  NE2       42.1500    2.8520   31.3820 N.ar   40  HIS40      -0.2212
     11  N         50.0680   -6.1810   20.9750 N.3   171  ASP171     -0.1225
     12  CA        48.9660   -5.2610   21.4310 C.3   171  ASP171      0.1805
     13  C         49.4700   -4.3750   22.5890 C.2   171  ASP171      0.2598
     14  O         50.5780   -4.5600   23.0700 O.2   171  ASP171     -0.2718
     15  CB        47.7940   -6.1270   21.9610 C.3   171  ASP171      0.1424
     16  CG        46.4410   -5.4270   22.1690 C.2   171  ASP171      0.3668
     17  OD1       45.6000   -6.0970   22.7560 O.co2 171  ASP171     -0.2456
     18  OD2       46.3100   -4.3010   21.7450 O.co2 171  ASP171     -0.2456
     19  N         48.6530   -3.4450   23.0170 N.am  172  SER172     -0.1938
     20  CA        48.9980   -2.5590   24.1470 C.3   172  SER172      0.2055
     21  C         48.3700   -3.4890   25.2540 C.2   172  SER172      0.2643
     22  O         47.6750   -4.4520   24.9500 O.2   172  SER172     -0.2714
     23  CB        48.2740   -1.1690   24.0000 C.3   172  SER172      0.2130
     24  OG        46.9380   -1.4650   23.6210 O.3   172  SER172     -0.2179
     25  N         48.6250   -3.2040   26.5000 N.am  173  CYS173     -0.1953
     26  CA        48.0760   -4.0430   27.5940 C.3   173  CYS173      0.1843
     27  C         47.9440   -3.1490   28.8380 C.2   173  CYS173      0.2625
     28  O         48.2260   -1.9510   28.7710 O.2   173  CYS173     -0.2714
     29  CB        49.0420   -5.2250   27.8060 C.3   173  CYS173      0.0997
     30  SG        48.3410   -6.6190   28.7230 S.3   173  CYS173     -0.0797
     31  N         47.5350   -3.7390   29.9310 N.am  174  GLN174     -0.1963
     32  CA        47.3720   -2.9460   31.1830 C.3   174  GLN174      0.1733
     33  C         48.6720   -2.1790   31.5110 C.2   174  GLN174      0.2616
     34  O         49.7700   -2.7140   31.4470 O.2   174  GLN174     -0.2715
     35  CB        47.0070   -3.8980   32.3460 C.3   174  GLN174      0.0408
     36  CG        45.4780   -4.2080   32.4390 C.3   174  GLN174      0.0908
     37  CD        44.9910   -5.0320   31.2580 C.2   174  GLN174      0.2608
     38  OE1       45.5940   -6.0200   30.9060 O.2   174  GLN174     -0.2717
     39  NE2       43.9150   -4.6890   30.6230 N.am  174  GLN174     -0.0878
     40  N         48.5300   -0.9440   31.8660 N.am  175  GLY175     -0.1955
     41  CA        49.7270   -0.1180   32.1950 C.3   175  GLY175      0.1869
     42  C         50.0230    0.8210   31.0310 C.2   175  GLY175      0.2309
     43  O         50.7000    1.8220   31.2010 O.2   175  GLY175     -0.2863
     44  N         47.4860    2.1150   29.2420 N.3   177  SER177     -0.1217
     45  CA        46.3100    3.0450   29.2270 C.3   177  SER177      0.1889
     46  C         46.7240    4.4910   29.3330 C.2   177  SER177      0.2288
     47  O         47.5900    4.7950   30.1350 O.2   177  SER177     -0.2866
     48  CB        45.3740    2.7770   30.4190 C.3   177  SER177      0.2089
     49  OG        44.6250    1.6380   30.0290 O.3   177  SER177     -0.2183
     50  N         45.4430    5.0900   24.3340 N.3   191  VAL191     -0.1231
     51  CA        45.1810    3.6710   24.7030 C.3   191  VAL191      0.1692
     52  C         43.9720    3.6770   25.6690 C.2   191  VAL191      0.2593
     53  O         44.0460    4.2780   26.7370 O.2   191  VAL191     -0.2718
     54  CB        46.4620    3.1110   25.3770 C.3   191  VAL191      0.0266
     55  CG1       46.2600    1.6410   25.7390 C.3   191  VAL191      0.0020
     56  CG2       47.6980    3.3000   24.4450 C.3   191  VAL191      0.0020
     57  N         42.9320    2.9970   25.2590 N.am  192  SER192     -0.1938
     58  CA        41.6930    2.9500   26.0850 C.3   192  SER192      0.2055
     59  C         41.2390    1.5870   26.6010 C.2   192  SER192      0.2643
     60  O         41.2790    1.4050   27.8130 O.2   192  SER192     -0.2714
     61  CB        40.6280    3.6570   25.1920 C.3   192  SER192      0.2130
     62  OG        39.4190    3.8570   25.9130 O.3   192  SER192     -0.2179
     63  N         40.8350    0.6630   25.7590 N.am  193  TRP193     -0.1959
     64  CA        40.3810   -0.6490   26.2720 C.3   193  TRP193      0.1771
     65  C         40.5150   -1.7320   25.2360 C.2   193  TRP193      0.2620
     66  O         40.8780   -1.4360   24.1090 O.2   193  TRP193     -0.2715
     67  CB        38.9070   -0.5410   26.7040 C.3   193  TRP193      0.0590
     68  CG        37.8900   -0.1230   25.5950 C.ar  193  TRP193      0.0006
     69  CD1       37.5680    1.1350   25.1450 C.ar  193  TRP193      0.0946
     70  CD2       37.0950   -0.9890   24.9040 C.ar  193  TRP193      0.0152
     71  NE1       36.6230    1.0310   24.2340 N.ar  193  TRP193     -0.2442
     72  CE2       36.3030   -0.2160   24.0490 C.ar  193  TRP193      0.0810
     73  CE3       36.9690   -2.3750   24.9160 C.ar  193  TRP193      0.0012
     74  CZ2       35.3790   -0.8390   23.2080 C.ar  193  TRP193      0.0191
     75  CZ3       36.0420   -3.0070   24.0690 C.ar  193  TRP193      0.0001
     76  CH2       35.2550   -2.2260   23.2210 C.ar  193  TRP193      0.0015
     77  N         40.2180   -2.9310   25.6330 N.am  194  GLY194     -0.1954
     78  CA        40.2930   -4.1000   24.7100 C.3   194  GLY194      0.1869
     79  C         39.8540   -5.3300   25.5100 C.2   194  GLY194      0.2309
     80  O         39.5240   -5.1710   26.6690 O.2   194  GLY194     -0.2863
     81  N         41.2340   -8.5280   27.0080 N.3   196  GLY196     -0.1210
     82  CA        42.5160   -9.2410   27.2670 C.3   196  GLY196      0.1956
     83  C         43.6070   -8.4580   26.5060 C.2   196  GLY196      0.2612
     84  O         43.3700   -7.3090   26.1390 O.2   196  GLY196     -0.2717
     85  N         44.7380   -9.0820   26.3050 N.am  197  CYS197     -0.1970
     86  CA        45.8470   -8.4310   25.5730 C.3   197  CYS197      0.1712
     87  C         46.3500   -9.4220   24.5440 C.2   197  CYS197      0.2296
     88  O         46.6050  -10.5640   24.8700 O.2   197  CYS197     -0.2864
     89  CB        46.9980   -8.0940   26.5020 C.3   197  CYS197      0.0983
     90  SG        46.5560   -6.9360   27.8190 S.3   197  CYS197     -0.0798
     91  N         43.0430   -3.7240   19.8350 N.3   204  GLY204     -0.1210
     92  CA        42.8810   -2.7360   20.9240 C.3   204  GLY204      0.1956
     93  C         41.9980   -1.6340   20.4380 C.2   204  GLY204      0.2612
     94  O         41.9220   -1.4510   19.2350 O.2   204  GLY204     -0.2717
     95  N         41.3700   -0.9320   21.3500 N.am  205  VAL205     -0.1965
     96  CA        40.4640    0.1920   21.0140 C.3   205  VAL205      0.1727
     97  C         41.1040    1.4340   21.6510 C.2   205  VAL205      0.2616
     98  O         41.5570    1.4480   22.7940 O.2   205  VAL205     -0.2715
     99  CB        39.0510   -0.1180   21.5780 C.3   205  VAL205      0.0290
    100  CG1       38.0760    0.9230   21.0300 C.3   205  VAL205      0.0023
    101  CG2       38.5850   -1.5190   21.1270 C.3   205  VAL205      0.0023
    102  N         41.0880    2.4510   20.8480 N.am  206  TYR206     -0.1974
    103  CA        41.6610    3.7700   21.1600 C.3   206  TYR206      0.1639
    104  C         40.7210    4.9440   21.0210 C.2   206  TYR206      0.2290
    105  O         39.8630    4.9340   20.1650 O.2   206  TYR206     -0.2864
    106  CB        42.9140    3.9090   20.1890 C.3   206  TYR206      0.0560
    107  CG        43.8670    2.7130   20.3530 C.ar  206  TYR206     -0.0198
    108  CD1       44.8660    2.7840   21.2990 C.ar  206  TYR206     -0.0009
    109  CD2       43.7190    1.5360   19.6230 C.ar  206  TYR206     -0.0009
    110  CE1       45.6900    1.7040   21.5240 C.ar  206  TYR206      0.0417
    111  CE2       44.5530    0.4450   19.8510 C.ar  206  TYR206      0.0417
    112  CZ        45.5420    0.5340   20.8150 C.ar  206  TYR206      0.1957
    113  OH        46.3640   -0.5310   21.1180 O.3   206  TYR206     -0.2866
@<TRIPOS>BOND
     1    94    93    2
     2   109   111   ar
     3   109   107   ar
     4    91    92    1
     5   111   112   ar
     6   105   104    2
     7   106   107    1
     8   106   103    1
     9   107   108   ar
    10    93    92    1
    11    93    95   am
    12   112   113    1
    13   112   110   ar
    14   102   103    1
    15   102    97   am
    16    11    12    1
    17    96    95    1
    18    96    99    1
    19    96    97    1
    20   104   103    1
    21   100    99    1
    22   101    99    1
    23   108   110   ar
    24    12    15    1
    25    12    13    1
    26    97    98    2
    27    18    16   ar
    28    15    16    1
    29    16    17   ar
    30    13    19   am
    31    13    14    2
    32    19    20    1
    33    74    76   ar
    34    74    72   ar
    35    76    75   ar
    36    24    23    1
    37    23    20    1
    38    72    71   ar
    39    72    70   ar
    40    75    73   ar
    41    66    65    2
    42    20    21    1
    43    71    69   ar
    44    50    51    1
    45    56    54    1
    46    87    88    2
    47    87    86    1
    48    51    54    1
    49    51    52    1
    50    78    79    1
    51    78    77    1
    52    70    73   ar
    53    70    68   ar
    54    22    21    2
    55    69    68   ar
    56    61    62    1
    57    61    58    1
    58    65    77   am
    59    65    64    1
    60    21    25   am
    61    57    52   am
    62    57    58    1
    63    54    55    1
    64    79    80    2
    65    86    85    1
    66    86    89    1
    67    68    67    1
    68    52    53    2
    69    63    64    1
    70    63    59   am
    71    58    59    1
    72    84    83    2
    73    64    67    1
    74    85    83   am
    75    25    26    1
    76    89    90    1
    77    83    82    1
    78    59    60    2
    79    81    82    1
    80    26    29    1
    81    26    27    1
    82    29    30    1
    83    90    30    1
    84    28    27    2
    85    27    31   am
    86    45    44    1
    87    45    46    1
    88    45    48    1
    89    46    47    2
    90    31    32    1
    91    49    48    1
    92     9     7   ar
    93     9    10   ar
    94     7     6   ar
    95    39    37   am
    96    38    37    2
    97    42    43    2
    98    42    41    1
    99    32    33    1
   100    32    35    1
   101    37    36    1
   102    10     8   ar
   103    34    33    2
   104    33    40   am
   105     6     8   ar
   106     6     5    1
   107    40    41    1
   108     1     2    1
   109    35    36    1
   110     5     2    1
   111     2     3    1
   112     3     4    2
