@<TRIPOS>MOLECULE
tmp/2fx6A00.pdb
 111 108 0 0 0
SMALL
GASTEIGER

@<TRIPOS>ATOM
      1  N         39.7290    7.3650   32.2200 N.3    40  HIS40      -0.1241
      2  CA        39.7180    6.3040   33.2370 C.3    40  HIS40       0.1621
      3  C         41.0280    6.2650   34.0220 C.2    40  HIS40       0.2264
      4  O         41.1830    5.4180   34.8790 O.2    40  HIS40      -0.2867
      5  CB        39.4460    4.9460   32.5970 C.3    40  HIS40       0.0745
      6  CG        40.5590    4.2740   31.8050 C.ar   40  HIS40       0.0817
      7  ND1       40.6980    4.2630   30.4990 N.ar   40  HIS40      -0.2268
      8  CD2       41.6180    3.5190   32.3160 C.ar   40  HIS40       0.1154
      9  CE1       41.7540    3.5620   30.1820 C.ar   40  HIS40       0.1986
     10  NE2       42.3190    3.1080   31.2780 N.ar   40  HIS40      -0.2212
     11  N         49.9310   -6.1930   21.0920 N.3   171  ASP171     -0.1225
     12  CA        48.7740   -5.3170   21.4960 C.3   171  ASP171      0.1805
     13  C         49.2040   -4.4450   22.6780 C.2   171  ASP171      0.2598
     14  O         50.3020   -4.5970   23.1950 O.2   171  ASP171     -0.2718
     15  CB        47.6170   -6.2210   21.9680 C.3   171  ASP171      0.1424
     16  CG        46.2360   -5.5650   22.0770 C.2   171  ASP171      0.3668
     17  OD1       45.3820   -6.2700   22.5920 O.co2 171  ASP171     -0.2456
     18  OD2       46.0840   -4.4380   21.6570 O.co2 171  ASP171     -0.2456
     19  N         48.3340   -3.5590   23.0750 N.am  172  SER172     -0.1938
     20  CA        48.5910   -2.6710   24.2290 C.3   172  SER172      0.2055
     21  C         47.9570   -3.5340   25.3470 C.2   172  SER172      0.2643
     22  O         47.3260   -4.5440   25.0840 O.2   172  SER172     -0.2714
     23  CB        47.8550   -1.3120   24.0370 C.3   172  SER172      0.2130
     24  OG        46.5260   -1.6340   23.6250 O.3   172  SER172     -0.2179
     25  N         48.1430   -3.1140   26.5530 N.am  173  CYS173     -0.1953
     26  CA        47.5910   -3.8690   27.6970 C.3   173  CYS173      0.1843
     27  C         47.5030   -2.9260   28.9130 C.2   173  CYS173      0.2625
     28  O         47.8670   -1.7560   28.8400 O.2   173  CYS173     -0.2714
     29  CB        48.5220   -5.0580   27.9730 C.3   173  CYS173      0.0997
     30  SG        47.8120   -6.3800   28.9800 S.3   173  CYS173     -0.0797
     31  N         47.0270   -3.4720   29.9970 N.am  174  GLN174     -0.1977
     32  CA        46.8810   -2.6810   31.2530 C.3   174  GLN174      0.1601
     33  C         48.2290   -1.9890   31.5610 C.2   174  GLN174      0.2287
     34  O         49.2890   -2.5860   31.4370 O.2   174  GLN174     -0.2864
     35  CB        46.4890   -3.6260   32.4300 C.3   174  GLN174      0.0394
     36  CG        45.1100   -4.3320   32.2630 C.3   174  GLN174      0.0908
     37  CD        45.2340   -5.4910   31.2880 C.2   174  GLN174      0.2608
     38  OE1       45.0360   -5.3270   30.1150 O.2   174  GLN174     -0.2717
     39  NE2       45.5590   -6.6810   31.6790 N.am  174  GLN174     -0.0878
     40  N         47.3120    2.2420   29.3050 N.3   177  SER177     -0.1217
     41  CA        46.1260    3.1780   29.3190 C.3   177  SER177      0.1889
     42  C         46.5200    4.6330   29.3510 C.2   177  SER177      0.2288
     43  O         47.4010    4.9270   30.1350 O.2   177  SER177     -0.2866
     44  CB        45.2550    3.0360   30.5730 C.3   177  SER177      0.2089
     45  OG        44.6330    1.7590   30.5300 O.3   177  SER177     -0.2183
     46  N         45.2880    5.1010   24.2890 N.3   191  VAL191     -0.1231
     47  CA        45.0590    3.6880   24.7000 C.3   191  VAL191      0.1692
     48  C         43.8430    3.7350   25.6740 C.2   191  VAL191      0.2593
     49  O         43.8940    4.3690   26.7240 O.2   191  VAL191     -0.2718
     50  CB        46.3160    3.1500   25.4180 C.3   191  VAL191      0.0266
     51  CG1       46.0500    1.6870   25.8340 C.3   191  VAL191      0.0020
     52  CG2       47.5730    3.2730   24.5070 C.3   191  VAL191      0.0020
     53  N         42.8020    3.0390   25.3020 N.am  192  SER192     -0.1938
     54  CA        41.5790    3.0300   26.1370 C.3   192  SER192      0.2055
     55  C         41.1930    1.6750   26.6870 C.2   192  SER192      0.2643
     56  O         41.2870    1.4610   27.8840 O.2   192  SER192     -0.2714
     57  CB        40.4770    3.6570   25.2360 C.3   192  SER192      0.2130
     58  OG        39.2410    3.7190   25.9370 O.3   192  SER192     -0.2179
     59  N         40.7680    0.7730   25.8370 N.am  193  TRP193     -0.1959
     60  CA        40.3670   -0.5510   26.3380 C.3   193  TRP193      0.1771
     61  C         40.5870   -1.7010   25.3530 C.2   193  TRP193      0.2620
     62  O         41.1370   -1.4930   24.2880 O.2   193  TRP193     -0.2715
     63  CB        38.8820   -0.4820   26.7460 C.3   193  TRP193      0.0590
     64  CG        37.8450   -0.1500   25.6510 C.ar  193  TRP193      0.0006
     65  CD1       37.5140    1.0890   25.1970 C.ar  193  TRP193      0.0946
     66  CD2       37.0530   -1.0560   25.0320 C.ar  193  TRP193      0.0152
     67  NE1       36.5350    0.8560   24.3410 N.ar  193  TRP193     -0.2442
     68  CE2       36.1780   -0.3980   24.1650 C.ar  193  TRP193      0.0810
     69  CE3       36.9920   -2.4470   25.1330 C.ar  193  TRP193      0.0012
     70  CZ2       35.2490   -1.1300   23.4090 C.ar  193  TRP193      0.0191
     71  CZ3       36.0670   -3.1780   24.3770 C.ar  193  TRP193      0.0001
     72  CH2       35.2010   -2.5190   23.5220 C.ar  193  TRP193      0.0015
     73  N         40.1450   -2.8660   25.7140 N.am  194  GLY194     -0.1954
     74  CA        40.2800   -4.0770   24.8740 C.3   194  GLY194      0.1869
     75  C         39.8240   -5.2830   25.7280 C.2   194  GLY194      0.2309
     76  O         39.6330   -5.1360   26.9220 O.2   194  GLY194     -0.2863
     77  N         41.0650   -8.3870   27.1860 N.3   196  GLY196     -0.1210
     78  CA        42.3360   -9.1170   27.4420 C.3   196  GLY196      0.1956
     79  C         43.3660   -8.3100   26.6630 C.2   196  GLY196      0.2612
     80  O         43.0860   -7.1780   26.2780 O.2   196  GLY196     -0.2717
     81  N         44.4950   -8.9200   26.4660 N.am  197  CYS197     -0.1970
     82  CA        45.5890   -8.2810   25.7160 C.3   197  CYS197      0.1712
     83  C         46.1350   -9.3250   24.7670 C.2   197  CYS197      0.2296
     84  O         46.3770  -10.4510   25.1500 O.2   197  CYS197     -0.2864
     85  CB        46.6840   -7.8640   26.6480 C.3   197  CYS197      0.0983
     86  SG        46.0910   -6.8310   28.0030 S.3   197  CYS197     -0.0798
     87  N         40.5960   -9.8530   19.0200 N.3   202  LYS202     -0.1245
     88  CA        40.2050   -8.8550   20.0780 C.3   202  LYS202      0.1561
     89  C         41.3000   -7.7800   20.1280 C.2   202  LYS202      0.2260
     90  O         42.1070   -7.7160   21.0510 O.2   202  LYS202     -0.2867
     91  CB        40.1030   -9.5500   21.4320 C.3   202  LYS202      0.0271
     92  CG        38.9520  -10.6030   21.4400 C.3   202  LYS202      0.0035
     93  CD        37.5540   -9.9070   21.2500 C.3   202  LYS202      0.0206
     94  CE        36.4780  -10.9970   21.1760 C.3   202  LYS202      0.1093
     95  NZ        35.1460  -10.3660   20.9790 N.3   202  LYS202     -0.1314
     96  N         42.9930   -3.9030   20.2520 N.3   204  GLY204     -0.1225
     97  CA        42.8150   -2.8280   21.2740 C.3   204  GLY204      0.1811
     98  C         41.9390   -1.7690   20.6450 C.2   204  GLY204      0.2280
     99  O         41.9000   -1.6570   19.4280 O.2   204  GLY204     -0.2866
    100  N         40.9310    2.3300   20.9180 N.3   206  TYR206     -0.1241
    101  CA        41.5010    3.6610   21.1930 C.3   206  TYR206      0.1605
    102  C         40.5520    4.8150   21.0280 C.2   206  TYR206      0.2264
    103  O         39.6750    4.7360   20.1900 O.2   206  TYR206     -0.2867
    104  CB        42.7290    3.8270   20.2030 C.3   206  TYR206      0.0534
    105  CG        43.6760    2.6440   20.3770 C.ar  206  TYR206     -0.0201
    106  CD1       44.6680    2.7280   21.3360 C.ar  206  TYR206     -0.0009
    107  CD2       43.5490    1.4660   19.6450 C.ar  206  TYR206     -0.0009
    108  CE1       45.5050    1.6690   21.5690 C.ar  206  TYR206      0.0417
    109  CE2       44.4020    0.3910   19.8830 C.ar  206  TYR206      0.0417
    110  CZ        45.3930    0.4900   20.8610 C.ar  206  TYR206      0.1957
    111  OH        46.2520   -0.5430   21.1730 O.3   206  TYR206     -0.2866
@<TRIPOS>BOND
     1    87    88    1
     2    99    98    2
     3   107   109   ar
     4   107   105   ar
     5   109   110   ar
     6    88    89    1
     7    88    91    1
     8    89    90    2
     9   103   102    2
    10   104   105    1
    11   104   101    1
    12    96    97    1
    13   105   106   ar
    14    98    97    1
    15   110   111    1
    16   110   108   ar
    17   100   101    1
    18    95    94    1
    19   102   101    1
    20    11    12    1
    21    94    93    1
    22    93    92    1
    23   106   108   ar
    24    91    92    1
    25    12    15    1
    26    12    13    1
    27    18    16   ar
    28    15    16    1
    29    16    17   ar
    30    13    19   am
    31    13    14    2
    32    19    20    1
    33    70    72   ar
    34    70    68   ar
    35    72    71   ar
    36    24    23    1
    37    23    20    1
    38    68    67   ar
    39    68    66   ar
    40    20    21    1
    41    62    61    2
    42    46    47    1
    43    67    65   ar
    44    71    69   ar
    45    52    50    1
    46    47    50    1
    47    47    48    1
    48    83    84    2
    49    83    82    1
    50    74    73    1
    51    74    75    1
    52    66    69   ar
    53    66    64   ar
    54    22    21    2
    55    65    64   ar
    56    57    58    1
    57    57    54    1
    58    53    48   am
    59    53    54    1
    60    21    25   am
    61    61    73   am
    62    61    60    1
    63    50    51    1
    64    64    63    1
    65    48    49    2
    66    82    81    1
    67    82    85    1
    68    75    76    2
    69    59    60    1
    70    59    55   am
    71    54    55    1
    72    80    79    2
    73    60    63    1
    74    81    79   am
    75    25    26    1
    76    85    86    1
    77    79    78    1
    78    55    56    2
    79    77    78    1
    80    26    29    1
    81    26    27    1
    82    29    30    1
    83    86    30    1
    84    28    27    2
    85    27    31   am
    86    40    41    1
    87    41    42    1
    88    41    44    1
    89    42    43    2
    90    31    32    1
    91    38    37    2
    92     9     7   ar
    93     9    10   ar
    94     7     6   ar
    95    45    44    1
    96    32    33    1
    97    32    35    1
    98    10     8   ar
    99    37    39   am
   100    37    36    1
   101    34    33    2
   102     6     8   ar
   103     6     5    1
   104     1     2    1
   105    36    35    1
   106     5     2    1
   107     2     3    1
   108     3     4    2
