@<TRIPOS>MOLECULE
tmp/2fxaB00.pdb
 149 148 0 0 0
SMALL
GASTEIGER

@<TRIPOS>ATOM
      1  N          4.6160   28.1040   10.3440 N.3    23  ILE23      -0.1245
      2  CA         4.0180   29.3970   10.0040 C.3    23  ILE23       0.1561
      3  C          4.0790   29.6410    8.5070 C.2    23  ILE23       0.2260
      4  O          3.0800   29.9900    7.8940 O.2    23  ILE23      -0.2867
      5  CB         4.7380   30.5350   10.7950 C.3    23  ILE23       0.0252
      6  CG1        4.3030   30.4530   12.2680 C.3    23  ILE23       0.0019
      7  CG2        4.4950   31.9530   10.1600 C.3    23  ILE23       0.0019
      8  CD1        5.0870   31.4010   13.1470 C.3    23  ILE23       0.0001
      9  N          1.4420   27.5370    6.6460 N.3    26  ASP26      -0.1225
     10  CA         0.1270   28.1760    6.7370 C.3    26  ASP26       0.1805
     11  C          0.0580   29.4770    5.9100 C.2    26  ASP26       0.2597
     12  O         -0.9390   29.7320    5.2720 O.2    26  ASP26      -0.2718
     13  CB        -0.2540   28.4770    8.1880 C.3    26  ASP26       0.1424
     14  CG        -0.5730   27.2400    8.9540 C.2    26  ASP26       0.3668
     15  OD1       -0.9170   26.1850    8.3370 O.co2  26  ASP26      -0.2456
     16  OD2       -0.4800   27.2970   10.2010 O.co2  26  ASP26      -0.2456
     17  N          1.1270   30.2520    5.9170 N.am   27  TRP27      -0.1976
     18  CA         1.1810   31.5080    5.2140 C.3    27  TRP27       0.1640
     19  C          1.1400   31.2740    3.7000 C.2    27  TRP27       0.2290
     20  O          0.3800   31.9370    2.9690 O.2    27  TRP27      -0.2864
     21  CB         2.4180   32.2620    5.6400 C.3    27  TRP27       0.0576
     22  CG         2.4140   33.7190    5.3610 C.ar   27  TRP27       0.0006
     23  CD1        1.5760   34.4070    4.5250 C.ar   27  TRP27       0.0946
     24  CD2        3.3290   34.6870    5.8950 C.ar   27  TRP27       0.0152
     25  NE1        1.8980   35.7500    4.5170 N.ar   27  TRP27      -0.2442
     26  CE2        2.9670   35.9530    5.3490 C.ar   27  TRP27       0.0810
     27  CE3        4.4200   34.6100    6.7860 C.ar   27  TRP27       0.0012
     28  CZ2        3.6560   37.1450    5.6640 C.ar   27  TRP27       0.0191
     29  CZ3        5.1180   35.7830    7.0870 C.ar   27  TRP27       0.0001
     30  CH2        4.7180   37.0490    6.5240 C.ar   27  TRP27       0.0015
     31  N         -0.2200   28.6030    2.1900 N.3    29  GLN29      -0.1231
     32  CA        -1.5930   28.1800    1.9190 C.3    29  GLN29       0.1698
     33  C         -2.5490   29.3730    1.7730 C.2    29  GLN29       0.2592
     34  O         -3.2280   29.5030    0.7750 O.2    29  GLN29      -0.2718
     35  CB        -2.1020   27.2060    2.9770 C.3    29  GLN29       0.0381
     36  CG        -1.5900   25.7900    2.7830 C.3    29  GLN29       0.0905
     37  CD        -1.9880   25.1980    1.4040 C.2    29  GLN29       0.2608
     38  OE1       -1.2000   25.2490    0.4380 O.2    29  GLN29      -0.2717
     39  NE2       -3.2190   24.6690    1.3050 N.am   29  GLN29      -0.0878
     40  N         -2.5590   30.2550    2.7620 N.am   30  TRP30      -0.1976
     41  CA        -3.2920   31.4910    2.7090 C.3    30  TRP30       0.1640
     42  C         -3.1160   32.2050    1.3340 C.2    30  TRP30       0.2290
     43  O         -4.0880   32.6670    0.7660 O.2    30  TRP30      -0.2864
     44  CB        -2.7760   32.3770    3.8610 C.3    30  TRP30       0.0576
     45  CG        -3.5720   33.6370    4.1400 C.ar   30  TRP30       0.0006
     46  CD1       -4.8420   33.9130    3.7100 C.ar   30  TRP30       0.0946
     47  CD2       -3.2050   34.7210    5.0100 C.ar   30  TRP30       0.0152
     48  NE1       -5.2680   35.1020    4.2170 N.ar   30  TRP30      -0.2442
     49  CE2       -4.2930   35.6350    5.0150 C.ar   30  TRP30       0.0810
     50  CE3       -2.0870   35.0000    5.8060 C.ar   30  TRP30       0.0012
     51  CZ2       -4.2690   36.8430    5.7440 C.ar   30  TRP30       0.0191
     52  CZ3       -2.0710   36.1990    6.5470 C.ar   30  TRP30       0.0001
     53  CH2       -3.1450   37.1060    6.4990 C.ar   30  TRP30       0.0015
     54  N          4.3360   40.2270    2.8080 N.3    42  HIS42      -0.1241
     55  CA         5.0280   40.9190    3.8850 C.3    42  HIS42       0.1621
     56  C          5.3470   42.3590    3.5120 C.2    42  HIS42       0.2264
     57  O          5.1520   43.2760    4.3190 O.2    42  HIS42      -0.2867
     58  CB         6.3140   40.1480    4.2690 C.3    42  HIS42       0.0745
     59  CG         6.7110   40.3250    5.7030 C.ar   42  HIS42       0.0817
     60  ND1        7.5710   39.4640    6.3560 N.ar   42  HIS42      -0.2268
     61  CD2        6.3190   41.2420    6.6280 C.ar   42  HIS42       0.1154
     62  CE1        7.7440   39.8850    7.6010 C.ar   42  HIS42       0.1986
     63  NE2        6.9730   40.9430    7.7990 N.ar   42  HIS42      -0.2212
     64  N          2.0860   44.1920    3.5400 N.3    45  TRP45      -0.1227
     65  CA         1.7280   44.3750    4.9280 C.3    45  TRP45       0.1737
     66  C          2.4930   45.5700    5.5240 C.2    45  TRP45       0.2595
     67  O          1.9140   46.4040    6.2140 O.2    45  TRP45      -0.2718
     68  CB         2.0440   43.1180    5.7400 C.3    45  TRP45       0.0564
     69  CG         1.1410   42.9800    6.8780 C.ar   45  TRP45       0.0003
     70  CD1        0.8350   43.9430    7.8240 C.ar   45  TRP45       0.0946
     71  CD2        0.3160   41.8530    7.1760 C.ar   45  TRP45       0.0152
     72  NE1       -0.1120   43.4680    8.6920 N.ar   45  TRP45      -0.2442
     73  CE2       -0.4390   42.1860    8.3340 C.ar   45  TRP45       0.0810
     74  CE3        0.1870   40.5680    6.6150 C.ar   45  TRP45       0.0012
     75  CZ2       -1.3310   41.2890    8.9320 C.ar   45  TRP45       0.0191
     76  CZ3       -0.6610   39.6520    7.2290 C.ar   45  TRP45       0.0001
     77  CH2       -1.4340   40.0270    8.3710 C.ar   45  TRP45       0.0015
     78  N          3.7960   45.6290    5.2910 N.am   46  ILE46      -0.1980
     79  CA         4.5840   46.6860    5.9040 C.3    46  ILE46       0.1595
     80  C          4.1550   48.0480    5.3610 C.2    46  ILE46       0.2287
     81  O          4.0130   48.9970    6.1300 O.2    46  ILE46      -0.2864
     82  CB         6.1360   46.4260    5.7960 C.3    46  ILE46       0.0276
     83  CG1        6.5440   45.1970    6.6360 C.3    46  ILE46       0.0022
     84  CG2        6.9530   47.6560    6.2190 C.3    46  ILE46       0.0022
     85  CD1        7.7820   44.4330    6.0400 C.3    46  ILE46       0.0001
     86  N          0.8050   48.8830    6.9560 N.3    49  GLN49      -0.1245
     87  CA         0.9200   49.2670    8.3610 C.3    49  GLN49       0.1566
     88  C          1.5390   50.6370    8.5860 C.2    49  GLN49       0.2260
     89  O          1.1000   51.3480    9.4700 O.2    49  GLN49      -0.2867
     90  CB         1.7180   48.2300    9.1630 C.3    49  GLN49       0.0367
     91  CG         1.3950   48.2570   10.6520 C.3    49  GLN49       0.0905
     92  CD         2.4160   47.4900   11.5380 C.2    49  GLN49       0.2608
     93  OE1        3.0810   48.1040   12.4260 O.2    49  GLN49      -0.2717
     94  NE2        2.5320   46.1630   11.3280 N.am   49  GLN49      -0.0878
     95  N        -10.0110   36.7730    4.1690 N.3   111  GLU111     -0.1231
     96  CA        -9.8800   35.3150    4.1420 C.3   111  GLU111      0.1699
     97  C         -9.2030   34.7690    5.3870 C.2   111  GLU111      0.2592
     98  O         -9.2680   33.5780    5.6250 O.2   111  GLU111     -0.2718
     99  CB        -9.0670   34.8530    2.9370 C.3   111  GLU111      0.0402
    100  CG        -9.6760   35.1940    1.5910 C.3   111  GLU111      0.1161
    101  CD        -9.5330   34.0510    0.5930 C.2   111  GLU111      0.3649
    102  OE1       -9.0410   34.3100   -0.5300 O.co2 111  GLU111     -0.2457
    103  OE2       -9.9080   32.8950    0.9380 O.co2 111  GLU111     -0.2457
    104  N         -8.5380   35.6210    6.1650 N.am  112  PHE112     -0.1962
    105  CA        -7.8850   35.2020    7.4050 C.3   112  PHE112      0.1771
    106  C         -8.8210   34.4430    8.3570 C.2   112  PHE112      0.2619
    107  O         -9.7880   34.9620    8.8580 O.2   112  PHE112     -0.2715
    108  CB        -7.1640   36.3730    8.1410 C.3   112  PHE112      0.0574
    109  CG        -6.5880   35.9760    9.5090 C.ar  112  PHE112     -0.0200
    110  CD1       -7.2400   36.2860   10.6740 C.ar  112  PHE112     -0.0042
    111  CD2       -5.3780   35.2990    9.6050 C.ar  112  PHE112     -0.0042
    112  CE1       -6.7090   35.9030   11.9200 C.ar  112  PHE112     -0.0003
    113  CE2       -4.8440   34.9290   10.8360 C.ar  112  PHE112     -0.0003
    114  CZ        -5.4980   35.2290   11.9780 C.ar  112  PHE112     -0.0000
    115  N         -8.4650   33.2040    8.6340 N.am  113  ASP113     -0.1971
    116  CA        -9.2760   32.3360    9.4510 C.3   113  ASP113      0.1709
    117  C         -8.3510   31.7410   10.5070 C.2   113  ASP113      0.2293
    118  O         -7.5450   30.8700   10.1950 O.2   113  ASP113     -0.2864
    119  CB        -9.7940   31.2310    8.5580 C.3   113  ASP113      0.1436
    120  CG       -10.7750   30.3270    9.2510 C.2   113  ASP113      0.3671
    121  OD1      -10.9210   30.3610   10.4970 O.co2 113  ASP113     -0.2456
    122  OD2      -11.4410   29.5730    8.5070 O.co2 113  ASP113     -0.2456
    123  N         -7.6540   27.9380   11.0680 N.3   116  ARG116     -0.1231
    124  CA        -6.8210   27.2390   10.0980 C.3   116  ARG116      0.1694
    125  C         -5.3330   27.5160   10.2610 C.2   116  ARG116      0.2592
    126  O         -4.5260   27.2320    9.3830 O.2   116  ARG116     -0.2718
    127  CB        -7.2600   27.5620    8.6700 C.3   116  ARG116      0.0321
    128  CG        -8.6220   26.9610    8.3360 C.3   116  ARG116      0.0489
    129  CD        -9.1770   27.5700    7.0550 C.3   116  ARG116      0.2205
    130  NE        -8.4330   27.1330    5.8690 N.pl3 116  ARG116     -0.0865
    131  CZ        -8.6380   25.9730    5.2360 C.cat 116  ARG116      0.5346
    132  NH1       -7.9180   25.6740    4.1560 N.pl3 116  ARG116      0.1354
    133  NH2       -9.5700   25.1110    5.6610 N.pl3 116  ARG116      0.1354
    134  N         -4.9490   28.0730   11.3880 N.am  117  ASN117     -0.1974
    135  CA        -3.5910   28.4970   11.5630 C.3   117  ASN117      0.1688
    136  C         -3.0160   27.6680   12.6890 C.2   117  ASN117      0.2292
    137  O         -3.6020   27.6370   13.7870 O.2   117  ASN117     -0.2864
    138  CB        -3.5890   29.9680   11.8680 C.3   117  ASN117      0.1181
    139  CG        -2.2400   30.4630   12.1790 C.2   117  ASN117      0.2629
    140  OD1       -1.7030   30.2440   13.2870 O.2   117  ASN117     -0.2716
    141  ND2       -1.6460   31.1360   11.2160 N.am  117  ASN117     -0.0877
    142  N          7.8400   47.8080   15.2410 N.3   150  ILE150     -0.1245
    143  CA         6.8200   47.3560   14.3030 C.3   150  ILE150      0.1561
    144  C          5.5990   46.8200   15.0770 C.2   150  ILE150      0.2260
    145  O          4.4520   47.0330   14.6490 O.2   150  ILE150     -0.2867
    146  CB         7.3760   46.3110   13.2540 C.3   150  ILE150      0.0252
    147  CG1        6.3530   46.0050   12.1450 C.3   150  ILE150      0.0019
    148  CG2        7.8830   45.0320   13.9310 C.3   150  ILE150      0.0019
    149  CD1        6.1600   47.1140   11.0900 C.3   150  ILE150      0.0001
@<TRIPOS>BOND
     1   102   101   ar
     2    38    37    2
     3   101   103   ar
     4   101   100    1
     5    43    42    2
     6    34    33    2
     7    39    37   am
     8    42    41    1
     9    37    36    1
    10   100    99    1
    11    33    32    1
    12    33    40   am
    13    32    31    1
    14    32    35    1
    15    41    40    1
    16    41    44    1
    17    36    35    1
    18    54    55    1
    19    99    96    1
    20    20    19    2
    21    56    55    1
    22    56    57    2
    23    64    65    1
    24    19    18    1
    25    46    45   ar
    26    46    48   ar
    27    44    45    1
    28    55    58    1
    29    45    47   ar
    30    96    95    1
    31    96    97    1
    32   132   131    1
    33    48    49   ar
    34    58    59    1
    35    25    23   ar
    36    25    26   ar
    37    23    22   ar
    38    65    66    1
    39    65    68    1
    40    47    49   ar
    41    47    50   ar
    42    49    51   ar
    43    18    21    1
    44    18    17    1
    45   131   133    1
    46   131   130    2
    47    12    11    2
    48    78    66   am
    49    78    79    1
    50    26    28   ar
    51    26    24   ar
    52    80    79    1
    53    80    81    2
    54    22    21    1
    55    22    24   ar
    56    97    98    2
    57    97   104   am
    58    66    67    2
    59    28    30   ar
    60    59    60   ar
    61    59    61   ar
    62    68    69    1
    63    51    53   ar
    64    82    79    1
    65    82    84    1
    66    82    83    1
    67    50    52   ar
    68   130   129    1
    69    24    27   ar
    70    11    17   am
    71    11    10    1
    72    85    83    1
    73   104   105    1
    74    60    62   ar
    75    53    52   ar
    76    30    29   ar
    77    74    71   ar
    78    74    76   ar
    79    61    63   ar
    80     9    10    1
    81    10    13    1
    82    27    29   ar
    83    69    71   ar
    84    69    70   ar
    85    86    87    1
    86   129   128    1
    87    71    73   ar
    88    76    77   ar
    89   105   108    1
    90   105   106    1
    91    62    63   ar
    92    70    72   ar
    93     4     3    2
    94   108   109    1
    95    13    14    1
    96    73    72   ar
    97    73    75   ar
    98   128   127    1
    99    15    14   ar
   100   106   115   am
   101   106   107    2
   102    87    88    1
   103    87    90    1
   104    77    75   ar
   105   122   120   ar
   106     3     2    1
   107   119   120    1
   108   119   116    1
   109    88    89    2
   110   115   116    1
   111   127   124    1
   112    14    16   ar
   113    90    91    1
   114   120   121   ar
   115   126   125    2
   116   116   117    1
   117   109   111   ar
   118   109   110   ar
   119   111   113   ar
   120     2     1    1
   121     2     5    1
   122   124   125    1
   123   124   123    1
   124     7     5    1
   125   118   117    2
   126   125   134   am
   127    91    92    1
   128   110   112   ar
   129     5     6    1
   130   113   114   ar
   131   149   147    1
   132   141   139   am
   133    94    92   am
   134   134   135    1
   135    92    93    2
   136   135   138    1
   137   135   136    1
   138   138   139    1
   139   112   114   ar
   140   147   146    1
   141   139   140    2
   142     6     8    1
   143   136   137    2
   144   146   148    1
   145   146   143    1
   146   143   144    1
   147   143   142    1
   148   145   144    2
