@<TRIPOS>MOLECULE
tmp/2fxaD01.pdb
 150 151 0 0 0
SMALL
GASTEIGER

@<TRIPOS>ATOM
      1  N         -1.7020   28.8730   51.8880 N.3    24  ILE24      -0.1245
      2  CA        -0.6970   27.9580   52.3950 C.3    24  ILE24       0.1561
      3  C         -0.6920   27.8650   53.9050 C.2    24  ILE24       0.2260
      4  O         -0.5600   26.7830   54.4620 O.2    24  ILE24      -0.2867
      5  CB         0.6930   28.3740   51.9060 C.3    24  ILE24       0.0252
      6  CG1        0.7600   28.2100   50.4030 C.3    24  ILE24       0.0019
      7  CG2        1.8320   27.5790   52.6270 C.3    24  ILE24       0.0019
      8  CD1        1.9710   28.8050   49.7960 C.3    24  ILE24       0.0001
      9  N         -3.6130   25.5930   55.0200 N.3    27  ASP27      -0.1225
     10  CA        -3.3790   24.1560   54.8220 C.3    27  ASP27       0.1805
     11  C         -2.2980   23.6320   55.7700 C.2    27  ASP27       0.2597
     12  O         -2.3770   22.5030   56.2630 O.2    27  ASP27      -0.2718
     13  CB        -2.9820   23.8590   53.3780 C.3    27  ASP27       0.1424
     14  CG        -4.1330   24.0250   52.3860 C.2    27  ASP27       0.3668
     15  OD1       -5.3170   23.9980   52.7590 O.co2  27  ASP27      -0.2456
     16  OD2       -3.8600   24.1610   51.1810 O.co2  27  ASP27      -0.2456
     17  N         -1.2980   24.4610   56.0350 N.am   28  TRP28      -0.1976
     18  CA        -0.1990   24.0820   56.8830 C.3    28  TRP28       0.1640
     19  C         -0.6990   23.9680   58.3270 C.2    28  TRP28       0.2290
     20  O         -0.2990   23.0610   59.0620 O.2    28  TRP28      -0.2864
     21  CB         0.9000   25.1290   56.7530 C.3    28  TRP28       0.0576
     22  CG         2.2920   24.7650   57.2570 C.ar   28  TRP28       0.0006
     23  CD1        2.6350   23.7370   58.0810 C.ar   28  TRP28       0.0946
     24  CD2        3.5080   25.4980   57.0060 C.ar   28  TRP28       0.0152
     25  NE1        3.9840   23.7640   58.3510 N.ar   28  TRP28      -0.2442
     26  CE2        4.5480   24.8320   57.7060 C.ar   28  TRP28       0.0810
     27  CE3        3.8190   26.6510   56.2490 C.ar   28  TRP28       0.0012
     28  CZ2        5.8810   25.2750   57.6740 C.ar   28  TRP28       0.0191
     29  CZ3        5.1390   27.0880   56.2060 C.ar   28  TRP28       0.0001
     30  CH2        6.1620   26.3970   56.9150 C.ar   28  TRP28       0.0015
     31  N         -2.6620   20.8680   58.7470 N.3    31  TRP31      -0.1241
     32  CA        -1.7130   19.7480   58.7800 C.3    31  TRP31       0.1605
     33  C         -1.1390   19.5460   60.1900 C.2    31  TRP31       0.2264
     34  O         -1.0500   18.4150   60.6580 O.2    31  TRP31      -0.2867
     35  CB        -0.6290   20.0400   57.7430 C.3    31  TRP31       0.0550
     36  CG         0.4060   18.9760   57.4110 C.ar   31  TRP31       0.0003
     37  CD1        0.2940   17.6110   57.5410 C.ar   31  TRP31       0.0946
     38  CD2        1.6960   19.2170   56.8330 C.ar   31  TRP31       0.0152
     39  NE1        1.4460   16.9950   57.0960 N.ar   31  TRP31      -0.2442
     40  CE2        2.3280   17.9520   56.6710 C.ar   31  TRP31       0.0810
     41  CE3        2.3900   20.3850   56.4540 C.ar   31  TRP31       0.0012
     42  CZ2        3.6230   17.8180   56.1390 C.ar   31  TRP31       0.0191
     43  CZ3        3.6690   20.2630   55.9070 C.ar   31  TRP31       0.0001
     44  CH2        4.2780   18.9840   55.7570 C.ar   31  TRP31       0.0015
     45  N          7.2630   24.0650   63.3320 N.3    42  HIS42      -0.1226
     46  CA         7.4700   23.0790   62.2750 C.3    42  HIS42       0.1752
     47  C          8.6060   23.5140   61.3260 C.2    42  HIS42       0.2596
     48  O          9.4550   22.6980   60.9260 O.2    42  HIS42      -0.2718
     49  CB         6.1750   22.7820   61.5000 C.3    42  HIS42       0.0759
     50  CG         6.2830   21.5900   60.5950 C.ar   42  HIS42       0.0818
     51  ND1        5.5410   21.4560   59.4460 N.ar   42  HIS42      -0.2268
     52  CD2        7.0820   20.4930   60.6510 C.ar   42  HIS42       0.1154
     53  CE1        5.8640   20.3260   58.8370 C.ar   42  HIS42       0.1986
     54  NE2        6.7880   19.7170   59.5530 N.ar   42  HIS42      -0.2212
     55  N          8.6240   24.8030   60.9940 N.am   43  HIS43      -0.1975
     56  CA         9.6340   25.3640   60.1210 C.3    43  HIS43       0.1656
     57  C         11.0390   25.2760   60.7520 C.2    43  HIS43       0.2291
     58  O         12.0060   24.9020   60.0900 O.2    43  HIS43      -0.2864
     59  CB         9.2470   26.7880   59.7420 C.3    43  HIS43       0.0771
     60  CG         9.8240   27.2450   58.4370 C.ar   43  HIS43       0.0820
     61  ND1        9.6590   28.5270   57.9600 N.ar   43  HIS43      -0.2267
     62  CD2       10.6050   26.5990   57.5310 C.ar   43  HIS43       0.1154
     63  CE1       10.2870   28.6390   56.8040 C.ar   43  HIS43       0.1986
     64  NE2       10.8660   27.4840   56.5220 N.ar   43  HIS43      -0.2212
     65  N         12.0280   21.6240   60.3540 N.3    46  TRP46      -0.1241
     66  CA        12.3740   21.4260   58.9620 C.3    46  TRP46       0.1605
     67  C         13.7810   21.9150   58.5950 C.2    46  TRP46       0.2264
     68  O         14.5180   21.2250   57.8840 O.2    46  TRP46      -0.2867
     69  CB        11.3290   22.0920   58.0860 C.3    46  TRP46       0.0550
     70  CG        11.5340   21.8770   56.6610 C.ar   46  TRP46       0.0003
     71  CD1       12.2960   22.6560   55.8090 C.ar   46  TRP46       0.0946
     72  CD2       10.9410   20.8590   55.8480 C.ar   46  TRP46       0.0152
     73  NE1       12.2140   22.1660   54.5250 N.ar   46  TRP46      -0.2442
     74  CE2       11.3920   21.0620   54.5240 C.ar   46  TRP46       0.0810
     75  CE3       10.0500   19.8190   56.1000 C.ar   46  TRP46       0.0012
     76  CZ2       10.9950   20.2320   53.4580 C.ar   46  TRP46       0.0191
     77  CZ3        9.6720   18.9860   55.0530 C.ar   46  TRP46       0.0001
     78  CH2       10.1400   19.1960   53.7530 C.ar   46  TRP46       0.0015
     79  N          1.6350   11.8870   56.8450 N.3   105  GLU105     -0.1231
     80  CA         0.2870   12.4290   56.7300 C.3   105  GLU105      0.1699
     81  C          0.1070   13.4070   55.5720 C.2   105  GLU105      0.2592
     82  O         -1.0140   13.8720   55.3280 O.2   105  GLU105     -0.2718
     83  CB        -0.1190   13.1090   58.0360 C.3   105  GLU105      0.0402
     84  CG        -0.7660   12.1430   59.0760 C.3   105  GLU105      0.1161
     85  CD        -0.3390   12.4390   60.5050 C.2   105  GLU105      0.3649
     86  OE1       -0.6120   11.5990   61.4150 O.co2 105  GLU105     -0.2457
     87  OE2        0.2830   13.5040   60.7290 O.co2 105  GLU105     -0.2457
     88  N          1.1910   13.7380   54.8660 N.am  106  PHE106     -0.1962
     89  CA         1.1340   14.7510   53.7870 C.3   106  PHE106      0.1771
     90  C          0.2880   14.2710   52.6050 C.2   106  PHE106      0.2619
     91  O          0.6110   13.2770   51.9530 O.2   106  PHE106     -0.2715
     92  CB         2.5410   15.1620   53.3270 C.3   106  PHE106      0.0574
     93  CG         2.5470   16.0350   52.1080 C.ar  106  PHE106     -0.0200
     94  CD1        3.0330   15.5490   50.8910 C.ar  106  PHE106     -0.0042
     95  CD2        2.0490   17.3400   52.1700 C.ar  106  PHE106     -0.0042
     96  CE1        3.0250   16.3580   49.7410 C.ar  106  PHE106     -0.0003
     97  CE2        2.0280   18.1660   51.0370 C.ar  106  PHE106     -0.0003
     98  CZ         2.5270   17.6800   49.8120 C.ar  106  PHE106     -0.0000
     99  N         -0.7990   14.9790   52.3420 N.am  107  ASP107     -0.1971
    100  CA        -1.6960   14.6120   51.2540 C.3   107  ASP107      0.1709
    101  C         -1.8210   15.8030   50.3020 C.2   107  ASP107      0.2293
    102  O         -2.4560   16.7890   50.6380 O.2   107  ASP107     -0.2864
    103  CB        -3.0680   14.2100   51.8250 C.3   107  ASP107      0.1436
    104  CG        -4.0600   13.7150   50.7590 C.2   107  ASP107      0.3671
    105  OD1       -3.7520   13.6250   49.5490 O.co2 107  ASP107     -0.2456
    106  OD2       -5.1980   13.4000   51.1600 O.co2 107  ASP107     -0.2456
    107  N         -5.2510   17.4470   49.3830 N.3   110  ARG110     -0.1231
    108  CA        -5.9440   18.3420   50.3230 C.3   110  ARG110      0.1694
    109  C         -5.2470   19.6940   50.4520 C.2   110  ARG110      0.2592
    110  O         -5.4580   20.4200   51.4420 O.2   110  ARG110     -0.2718
    111  CB        -6.1240   17.6900   51.7020 C.3   110  ARG110      0.0321
    112  CG        -6.6690   16.2700   51.6460 C.3   110  ARG110      0.0489
    113  CD        -7.7750   16.0180   52.6500 C.3   110  ARG110      0.2205
    114  NE        -7.3370   16.0760   54.0400 N.pl3 110  ARG110     -0.0865
    115  CZ        -6.7930   15.0570   54.7130 C.cat 110  ARG110      0.5346
    116  NH1       -6.4520   15.2140   55.9910 N.pl3 110  ARG110      0.1354
    117  NH2       -6.5750   13.8780   54.1200 N.pl3 110  ARG110      0.1354
    118  N         -4.4190   20.0130   49.4520 N.am  111  ASN111     -0.1974
    119  CA        -3.5700   21.1890   49.4650 C.3   111  ASN111      0.1688
    120  C         -4.0040   22.1250   48.3550 C.2   111  ASN111      0.2292
    121  O         -4.1130   21.7140   47.1970 O.2   111  ASN111     -0.2864
    122  CB        -2.1160   20.7860   49.2920 C.3   111  ASN111      0.1181
    123  CG        -1.1830   21.9680   49.2930 C.2   111  ASN111      0.2629
    124  OD1       -1.0500   22.7020   48.2940 O.2   111  ASN111     -0.2716
    125  ND2       -0.5120   22.1610   50.4100 N.am  111  ASN111     -0.0877
    126  N         18.9800   27.1660   50.4430 N.3   144  ILE144     -0.1231
    127  CA        18.0240   26.2340   51.0480 C.3   144  ILE144      0.1692
    128  C         17.1420   25.4830   50.0290 C.2   144  ILE144      0.2592
    129  O         16.5920   24.4240   50.3490 O.2   144  ILE144     -0.2718
    130  CB        17.0960   26.9470   52.0730 C.3   144  ILE144      0.0266
    131  CG1       16.5690   25.9510   53.1070 C.3   144  ILE144      0.0019
    132  CG2       15.9480   27.6800   51.3840 C.3   144  ILE144      0.0020
    133  CD1       17.5480   25.6750   54.2020 C.3   144  ILE144      0.0001
    134  N         16.9980   26.0350   48.8210 N.am  145  PHE145     -0.1976
    135  CA        16.2240   25.3900   47.7590 C.3   145  PHE145      0.1639
    136  C         16.9470   24.2100   47.0850 C.2   145  PHE145      0.2290
    137  O         16.2970   23.3800   46.4470 O.2   145  PHE145     -0.2864
    138  CB        15.7690   26.4120   46.7100 C.3   145  PHE145      0.0560
    139  CG        14.6940   27.3580   47.1910 C.ar  145  PHE145     -0.0200
    140  CD1       15.0260   28.6440   47.6460 C.ar  145  PHE145     -0.0042
    141  CD2       13.3570   26.9770   47.1720 C.ar  145  PHE145     -0.0042
    142  CE1       14.0370   29.5400   48.0830 C.ar  145  PHE145     -0.0003
    143  CE2       12.3560   27.8440   47.6040 C.ar  145  PHE145     -0.0003
    144  CZ        12.6920   29.1380   48.0600 C.ar  145  PHE145     -0.0000
    145  N         17.0190   21.2890   50.1380 N.3   148  SER148     -0.1217
    146  CA        15.6830   20.7210   50.3460 C.3   148  SER148      0.1889
    147  C         15.2550   19.7960   49.2120 C.2   148  SER148      0.2288
    148  O         14.5080   18.8400   49.4450 O.2   148  SER148     -0.2866
    149  CB        14.6470   21.8100   50.6270 C.3   148  SER148      0.2089
    150  OG        14.9260   22.4050   51.8860 O.3   148  SER148     -0.2183
@<TRIPOS>BOND
     1   137   136    2
     2   138   139    1
     3   138   135    1
     4   136   135    1
     5   141   139   ar
     6   141   143   ar
     7   139   140   ar
     8   121   120    2
     9   143   144   ar
    10   140   142   ar
    11   135   134    1
    12   144   142   ar
    13   124   123    2
    14   120   119    1
    15   134   128   am
    16   147   148    2
    17   147   146    1
    18   122   123    1
    19   122   119    1
    20   123   125   am
    21   107   108    1
    22   118   119    1
    23   118   109   am
    24   105   104   ar
    25    96    98   ar
    26    96    94   ar
    27     8     6    1
    28    98    97   ar
    29   128   129    2
    30   128   127    1
    31   145   146    1
    32   101   102    2
    33   101   100    1
    34   108   109    1
    35   108   111    1
    36   146   149    1
    37     6     5    1
    38   126   127    1
    39   109   110    2
    40   149   150    1
    41   104   106   ar
    42   104   103    1
    43    94    93   ar
    44    97    95   ar
    45   127   130    1
    46    16    14   ar
    47   100   103    1
    48   100    99    1
    49   132   130    1
    50   112   111    1
    51   112   113    1
    52     1     2    1
    53     5     2    1
    54     5     7    1
    55    91    90    2
    56   130   131    1
    57    93    95   ar
    58    93    92    1
    59    99    90   am
    60    14    15   ar
    61    14    13    1
    62     2     3    1
    63    90    89    1
    64   113   114    1
    65   131   133    1
    66    92    89    1
    67    13    10    1
    68    76    78   ar
    69    76    74   ar
    70    78    77   ar
    71    89    88    1
    72     3     4    2
    73   114   115    2
    74   117   115    1
    75    74    73   ar
    76    74    72   ar
    77    73    71   ar
    78   115   116    1
    79    10     9    1
    80    10    11    1
    81    88    81   am
    82    77    75   ar
    83    82    81    2
    84    81    80    1
    85    44    43   ar
    86    44    42   ar
    87    11    17   am
    88    11    12    2
    89    71    70   ar
    90    72    75   ar
    91    72    70   ar
    92    43    41   ar
    93    17    18    1
    94    42    40   ar
    95    29    27   ar
    96    29    30   ar
    97    27    24   ar
    98    41    38   ar
    99    64    63   ar
   100    64    62   ar
   101    70    69    1
   102    40    38   ar
   103    40    39   ar
   104    80    79    1
   105    80    83    1
   106    21    18    1
   107    21    22    1
   108    63    61   ar
   109    38    36   ar
   110    18    19    1
   111    30    28   ar
   112    24    22   ar
   113    24    26   ar
   114    39    37   ar
   115    22    23   ar
   116    36    37   ar
   117    36    35    1
   118    62    60   ar
   119    28    26   ar
   120    26    25   ar
   121    35    32    1
   122    68    67    2
   123    61    60   ar
   124    83    84    1
   125    23    25   ar
   126    69    66    1
   127    19    20    2
   128    60    59    1
   129    67    66    1
   130    31    32    1
   131    32    33    1
   132    53    51   ar
   133    53    54   ar
   134    66    65    1
   135    84    85    1
   136    51    50   ar
   137    54    52   ar
   138    59    56    1
   139    58    57    2
   140    56    57    1
   141    56    55    1
   142    33    34    2
   143    85    87   ar
   144    85    86   ar
   145    50    52   ar
   146    50    49    1
   147    48    47    2
   148    55    47   am
   149    47    46    1
   150    49    46    1
   151    46    45    1
