@<TRIPOS>MOLECULE
tmp/2fxlA00.pdb
 82 76 0 0 0
SMALL
GASTEIGER

@<TRIPOS>ATOM
      1  N         25.2610   22.2470   39.4180 N.3   158  PHE158     -0.1241
      2  CA        26.4290   22.2250   38.5620 C.3   158  PHE158      0.1605
      3  C         26.8960   20.7820   38.3550 C.2   158  PHE158      0.2264
      4  O         27.6260   20.1740   39.1420 O.2   158  PHE158     -0.2867
      5  CB        27.5420   23.1310   39.1020 C.3   158  PHE158      0.0534
      6  CG        28.6300   23.4180   38.0870 C.ar  158  PHE158     -0.0203
      7  CD1       28.3310   24.0670   36.9020 C.ar  158  PHE158     -0.0042
      8  CD2       29.9380   23.0540   38.2990 C.ar  158  PHE158     -0.0042
      9  CE1       29.3550   24.3090   36.0160 C.ar  158  PHE158     -0.0003
     10  CE2       30.9580   23.2920   37.4040 C.ar  158  PHE158     -0.0003
     11  CZ        30.6580   23.9500   36.2180 C.ar  158  PHE158     -0.0000
     12  N         36.3700   18.0900   41.3710 N.3   169  LEU169     -0.1245
     13  CA        35.0440   18.5420   41.7290 C.3   169  LEU169      0.1561
     14  C         33.9490   17.5300   41.4290 C.2   169  LEU169      0.2260
     15  O         33.8180   16.9790   40.3360 O.2   169  LEU169     -0.2867
     16  CB        34.7600   19.8520   40.9770 C.3   169  LEU169      0.0270
     17  CG        33.4110   20.5010   41.2680 C.3   169  LEU169      0.0019
     18  CD1       33.4010   21.0610   42.6820 C.3   169  LEU169      0.0001
     19  CD2       33.1170   21.5830   40.2500 C.3   169  LEU169      0.0001
     20  N         23.2120   23.2020   45.5390 N.3   175  ARG175     -0.1245
     21  CA        24.3060   23.9210   46.1840 C.3   175  ARG175      0.1563
     22  C         23.8450   25.3480   46.4750 C.2   175  ARG175      0.2260
     23  O         22.8130   25.8030   46.0170 O.2   175  ARG175     -0.2867
     24  CB        25.5770   23.9630   45.3430 C.3   175  ARG175      0.0307
     25  CG        25.3750   24.6500   43.9950 C.3   175  ARG175      0.0489
     26  CD        26.6500   24.7540   43.1780 C.3   175  ARG175      0.2205
     27  NE        26.4400   25.6460   42.0440 N.pl3 175  ARG175     -0.0865
     28  CZ        27.3460   26.0200   41.1640 C.cat 175  ARG175      0.5346
     29  NH1       28.5860   25.5890   41.2250 N.pl3 175  ARG175      0.1354
     30  NH2       26.9790   26.8570   40.1870 N.pl3 175  ARG175      0.1354
     31  N         24.1090   26.7550   35.9030 N.3   225  SER225     -0.1202
     32  CA        25.4310   27.2730   36.1410 C.3   225  SER225      0.2020
     33  C         25.3640   28.8170   36.1910 C.2   225  SER225      0.2619
     34  O         24.2890   29.3560   35.8920 O.2   225  SER225     -0.2717
     35  CB        26.4320   26.8370   35.0810 C.3   225  SER225      0.2103
     36  OG        26.0130   27.4040   33.8580 O.3   225  SER225     -0.2182
     37  N         26.4780   29.4370   36.5570 N.am  226  VAL226     -0.1965
     38  CA        26.4500   30.9160   36.5890 C.3   226  VAL226      0.1727
     39  C         26.2560   31.4460   35.1650 C.2   226  VAL226      0.2616
     40  O         25.4590   32.3640   34.9840 O.2   226  VAL226     -0.2715
     41  CB        27.7040   31.4740   37.2590 C.3   226  VAL226      0.0290
     42  CG1       27.7410   32.9890   37.2070 C.3   226  VAL226      0.0023
     43  CG2       27.7710   31.0010   38.7150 C.3   226  VAL226      0.0023
     44  N         26.9680   30.8420   34.2250 N.am  227  GLN227     -0.1977
     45  CA        26.8790   31.1250   32.7920 C.3   227  GLN227      0.1601
     46  C         25.4530   31.2220   32.2880 C.2   227  GLN227      0.2287
     47  O         24.9970   32.2190   31.6980 O.2   227  GLN227     -0.2864
     48  CB        27.6640   30.0620   32.0110 C.3   227  GLN227      0.0394
     49  CG        29.1580   30.0420   32.0300 C.3   227  GLN227      0.0908
     50  CD        29.8210   29.3830   33.2380 C.2   227  GLN227      0.2608
     51  OE1       29.1280   29.1370   34.2260 O.2   227  GLN227     -0.2717
     52  NE2       31.1060   29.1340   33.0850 N.am  227  GLN227     -0.0878
     53  N         31.8050   33.6990   41.6910 N.3   253  ASN253     -0.1240
     54  CA        31.1230   32.6050   42.3760 C.3   253  ASN253      0.1653
     55  C         31.7800   32.5140   43.7640 C.2   253  ASN253      0.2266
     56  O         32.9260   32.0900   43.7860 O.2   253  ASN253     -0.2867
     57  CB        31.1990   31.2750   41.6250 C.3   253  ASN253      0.1155
     58  CG        30.2680   30.2060   42.1780 C.2   253  ASN253      0.2627
     59  OD1       29.7620   30.3120   43.2950 O.2   253  ASN253     -0.2716
     60  ND2       30.0060   29.1290   41.4300 N.am  253  ASN253     -0.0877
     61  N         32.2890   30.8110   46.9240 N.3   255  HIS255     -0.1241
     62  CA        32.0090   29.4410   47.3380 C.3   255  HIS255      0.1621
     63  C         31.7300   29.2930   48.8280 C.2   255  HIS255      0.2264
     64  O         32.3900   29.9430   49.6370 O.2   255  HIS255     -0.2867
     65  CB        33.2060   28.5870   46.9330 C.3   255  HIS255      0.0745
     66  CG        33.5520   28.6610   45.4670 C.ar  255  HIS255      0.0817
     67  ND1       32.6770   28.2950   44.4740 N.ar  255  HIS255     -0.2268
     68  CD2       34.6770   29.0390   44.8240 C.ar  255  HIS255      0.1154
     69  CE1       33.2530   28.4520   43.2840 C.ar  255  HIS255      0.1986
     70  NE2       34.4690   28.9030   43.4640 N.ar  255  HIS255     -0.2212
     71  N         35.3680   31.6270   41.6650 N.3   285  GLY285     -0.1225
     72  CA        35.0890   31.5530   40.2290 C.3   285  GLY285      0.1811
     73  C         34.7950   32.9790   39.7600 C.2   285  GLY285      0.2280
     74  O         34.3340   33.8190   40.5330 O.2   285  GLY285     -0.2866
     75  N         33.0180   34.6830   36.2440 N.3   287  ILE287     -0.1245
     76  CA        32.3040   34.3960   34.9980 C.3   287  ILE287      0.1561
     77  C         31.8440   35.7080   34.3610 C.2   287  ILE287      0.2260
     78  O         31.1830   36.4990   35.0240 O.2   287  ILE287     -0.2867
     79  CB        31.1460   33.4280   35.1960 C.3   287  ILE287      0.0252
     80  CG1       31.5420   32.0750   35.8000 C.3   287  ILE287      0.0019
     81  CG2       30.4410   33.1630   33.8660 C.3   287  ILE287      0.0019
     82  CD1       31.6190   31.9940   37.2950 C.3   287  ILE287      0.0001
@<TRIPOS>BOND
     1    47    46    2
     2    48    49    1
     3    48    45    1
     4    49    50    1
     5    46    45    1
     6    45    44    1
     7    52    50   am
     8    50    51    2
     9    36    35    1
    10    81    79    1
    11    44    39   am
    12    77    76    1
    13    77    78    2
    14    40    39    2
    15    76    79    1
    16    76    75    1
    17    35    32    1
    18    39    38    1
    19    79    80    1
    20    80    82    1
    21    34    33    2
    22    31    32    1
    23     9    11   ar
    24     9     7   ar
    25    32    33    1
    26    33    37   am
    27    11    10   ar
    28    37    38    1
    29    38    41    1
    30     7     6   ar
    31    42    41    1
    32    41    43    1
    33    10     8   ar
    34     6     8   ar
    35     6     5    1
    36     3     2    1
    37     3     4    2
    38     2     5    1
    39     2     1    1
    40    73    72    1
    41    73    74    2
    42    30    28    1
    43    72    71    1
    44    19    17    1
    45    15    14    2
    46    16    17    1
    47    16    13    1
    48    28    29    1
    49    28    27    2
    50    17    18    1
    51    12    13    1
    52    14    13    1
    53    60    58   am
    54    57    58    1
    55    57    54    1
    56    53    54    1
    57    27    26    1
    58    58    59    2
    59    54    55    1
    60    26    25    1
    61    69    70   ar
    62    69    67   ar
    63    70    68   ar
    64    55    56    2
    65    25    24    1
    66    67    66   ar
    67    68    66   ar
    68    24    21    1
    69    66    65    1
    70    20    21    1
    71    23    22    2
    72    21    22    1
    73    61    62    1
    74    65    62    1
    75    62    63    1
    76    63    64    2
