@<TRIPOS>MOLECULE
tmp/2fxsA00.pdb
 146 133 0 0 0
SMALL
GASTEIGER

@<TRIPOS>ATOM
      1  N         20.1610   25.8920    0.0530 N.3    33  LEU33      -0.1245
      2  CA        19.0520   26.7090    0.5330 C.3    33  LEU33       0.1561
      3  C         18.4900   26.1620    1.8360 C.2    33  LEU33       0.2260
      4  O         18.0700   26.9250    2.6970 O.2    33  LEU33      -0.2867
      5  CB        17.9560   26.8120   -0.5330 C.3    33  LEU33       0.0270
      6  CG        18.4680   27.3760   -1.8670 C.3    33  LEU33       0.0019
      7  CD1       17.2990   27.6040   -2.8080 C.3    33  LEU33       0.0001
      8  CD2       19.2350   28.6830   -1.6350 C.3    33  LEU33       0.0001
      9  N         20.9720   27.2280    4.5130 N.3    36  ASN36      -0.1225
     10  CA        20.8070   28.6460    4.8430 C.3    36  ASN36       0.1785
     11  C         19.5670   28.8510    5.7040 C.2    36  ASN36       0.2597
     12  O         19.5720   29.6650    6.6390 O.2    36  ASN36      -0.2718
     13  CB        20.6850   29.4910    3.5710 C.3    36  ASN36       0.1169
     14  CG        21.9810   29.5630    2.7960 C.2    36  ASN36       0.2627
     15  OD1       23.0250   29.1400    3.2790 O.2    36  ASN36      -0.2716
     16  ND2       21.9230   30.1110    1.5920 N.am   36  ASN36      -0.0877
     17  N         18.5020   28.1120    5.3890 N.am   37  ALA37      -0.1979
     18  CA        17.2640   28.2130    6.1550 C.3    37  ALA37       0.1597
     19  C         17.5360   27.7880    7.5950 C.2    37  ALA37       0.2287
     20  O         17.1320   28.4660    8.5390 O.2    37  ALA37      -0.2864
     21  CB        16.1820   27.3230    5.5420 C.3    37  ALA37       0.0319
     22  N         19.3590   30.3870    9.5730 N.3    40  ALA40      -0.1245
     23  CA        18.5240   31.5220    9.9530 C.3    40  ALA40       0.1562
     24  C         17.6390   31.1140   11.1230 C.2    40  ALA40       0.2260
     25  O         17.3190   31.9320   11.9910 O.2    40  ALA40      -0.2867
     26  CB        17.6660   31.9860    8.7650 C.3    40  ALA40       0.0290
     27  N         19.6530   31.1440   14.2990 N.3    43  LYS43      -0.1245
     28  CA        19.8230   32.5120   14.7720 C.3    43  LYS43       0.1561
     29  C         18.6630   33.0510   15.5890 C.2    43  LYS43       0.2260
     30  O         18.8820   33.6700   16.6300 O.2    43  LYS43      -0.2867
     31  CB        20.1100   33.4490   13.5990 C.3    43  LYS43       0.0271
     32  CG        21.5140   33.3020   13.0410 C.3    43  LYS43       0.0035
     33  CD        21.7500   34.3000   11.9310 C.3    43  LYS43       0.0206
     34  CE        23.2050   34.3250   11.5000 C.3    43  LYS43       0.1093
     35  NZ        23.4060   35.3720   10.4590 N.3    43  LYS43      -0.1314
     36  N         11.3000   29.5260    5.5210 N.3    78  ASP78      -0.1239
     37  CA        11.7570   29.2070    6.8680 C.3    78  ASP78       0.1674
     38  C         11.2230   30.2800    7.8160 C.2    78  ASP78       0.2266
     39  O         10.9630   31.4120    7.4020 O.2    78  ASP78      -0.2867
     40  CB        13.3030   29.1320    6.9360 C.3    78  ASP78       0.1410
     41  CG        13.9820   30.4900    6.7670 C.2    78  ASP78       0.3668
     42  OD1       13.8150   31.3570    7.6470 O.co2  78  ASP78      -0.2456
     43  OD2       14.6910   30.6890    5.7540 O.co2  78  ASP78      -0.2456
     44  N         15.2170   34.0330   11.5120 N.3    81  ILE81      -0.1231
     45  CA        15.3460   35.4250   11.9240 C.3    81  ILE81       0.1692
     46  C         14.8740   36.4710   10.9170 C.2    81  ILE81       0.2593
     47  O         14.4950   37.5780   11.3030 O.2    81  ILE81      -0.2718
     48  CB        16.8140   35.7120   12.3530 C.3    81  ILE81       0.0266
     49  CG1       16.9030   37.0560   13.0700 C.3    81  ILE81       0.0019
     50  CG2       17.7420   35.6530   11.1430 C.3    81  ILE81       0.0020
     51  CD1       18.2110   37.2500   13.8130 C.3    81  ILE81       0.0001
     52  N         14.8820   36.1320    9.6310 N.am   82  GLY82      -0.1942
     53  CA        14.4380   37.0940    8.6340 C.3    82  GLY82       0.2014
     54  C         15.4390   38.2200    8.4460 C.2    82  GLY82       0.2638
     55  O         16.4150   38.3250    9.1950 O.2    82  GLY82      -0.2714
     56  N         15.2010   39.0660    7.4460 N.am   83  MET83      -0.1976
     57  CA        16.0960   40.1790    7.1490 C.3    83  MET83       0.1605
     58  C         15.3320   41.4880    6.9570 C.2    83  MET83       0.2287
     59  O         14.2910   41.5180    6.3000 O.2    83  MET83      -0.2864
     60  CB        16.8990   39.8840    5.8760 C.3    83  MET83       0.0413
     61  CG        17.8750   38.7100    5.9820 C.3    83  MET83       0.0598
     62  SD        18.6880   38.3630    4.4010 S.3    83  MET83      -0.1393
     63  CE        17.4920   37.2130    3.6890 C.3    83  MET83       0.0692
     64  N         19.3310   44.7770    5.7510 N.3    87  GLU87      -0.1245
     65  CA        20.0280   43.5010    5.6840 C.3    87  GLU87       0.1567
     66  C         19.9440   42.8610    4.3030 C.2    87  GLU87       0.2260
     67  O         20.9150   42.2650    3.8310 O.2    87  GLU87      -0.2867
     68  CB        19.4750   42.5480    6.7360 C.3    87  GLU87       0.0388
     69  CG        19.7250   43.0140    8.1550 C.3    87  GLU87       0.1160
     70  CD        19.1780   42.0490    9.1840 C.2    87  GLU87       0.3649
     71  OE1       17.9430   41.8270    9.2220 O.co2  87  GLU87      -0.2457
     72  OE2       19.9880   41.5100    9.9580 O.co2  87  GLU87      -0.2457
     73  N         22.3850   44.6660    2.1610 N.3    90  ASN90      -0.1225
     74  CA        23.7230   44.3450    2.6520 C.3    90  ASN90       0.1785
     75  C         24.1380   42.8950    2.3890 C.2    90  ASN90       0.2597
     76  O         25.1430   42.6390    1.7280 O.2    90  ASN90      -0.2718
     77  CB        23.7730   44.6230    4.1610 C.3    90  ASN90       0.1169
     78  CG        25.1810   44.5740    4.7330 C.2    90  ASN90       0.2627
     79  OD1       25.8080   45.6130    4.9510 O.2    90  ASN90      -0.2716
     80  ND2       25.6830   43.3660    4.9830 N.am   90  ASN90      -0.0877
     81  N         23.3590   41.9500    2.9050 N.am   91  ASN91      -0.1960
     82  CA        23.6710   40.5290    2.7620 C.3    91  ASN91       0.1819
     83  C         23.5600   39.9380    1.3660 C.2    91  ASN91       0.2621
     84  O         24.3210   39.0400    1.0110 O.2    91  ASN91      -0.2715
     85  CB        22.7810   39.6910    3.6840 C.3    91  ASN91       0.1195
     86  CG        22.8830   40.1050    5.1330 C.2    91  ASN91       0.2630
     87  OD1       23.7960   40.8390    5.5220 O.2    91  ASN91      -0.2716
     88  ND2       21.9470   39.6260    5.9480 N.am   91  ASN91      -0.0877
     89  N         22.6180   40.4340    0.5730 N.am   92  LEU92      -0.1977
     90  CA        22.4060   39.8710   -0.7480 C.3    92  LEU92       0.1596
     91  C         22.9180   40.6280   -1.9640 C.2    92  LEU92       0.2287
     92  O         22.2520   40.6310   -2.9990 O.2    92  LEU92      -0.2864
     93  CB        20.9120   39.5800   -0.9370 C.3    92  LEU92       0.0297
     94  CG        20.2810   38.6510    0.1070 C.3    92  LEU92       0.0022
     95  CD1       18.8090   38.4610   -0.1950 C.3    92  LEU92       0.0001
     96  CD2       20.9990   37.3200    0.1090 C.3    92  LEU92       0.0001
     97  N         27.5330   44.3940   -0.5070 N.3    95  ILE95      -0.1245
     98  CA        28.7880   44.2220    0.2140 C.3    95  ILE95       0.1561
     99  C         29.5830   43.0460   -0.3510 C.2    95  ILE95       0.2260
    100  O         29.0290   41.9790   -0.6250 O.2    95  ILE95      -0.2867
    101  CB        28.5380   43.9880    1.7220 C.3    95  ILE95       0.0252
    102  CG1       27.6700   45.1140    2.2940 C.3    95  ILE95       0.0019
    103  CG2       29.8670   43.9190    2.4660 C.3    95  ILE95       0.0019
    104  CD1       28.2710   46.5050    2.1610 C.3    95  ILE95       0.0001
    105  N         31.8470   39.8250   -0.6650 N.3    97  LYS97      -0.1245
    106  CA        31.8870   38.6280    0.1540 C.3    97  LYS97       0.1561
    107  C         33.2570   37.9800    0.0490 C.2    97  LYS97       0.2260
    108  O         33.8230   37.8510   -1.0380 O.2    97  LYS97      -0.2867
    109  CB        30.7950   37.6530   -0.2780 C.3    97  LYS97       0.0271
    110  CG        29.4430   38.3240   -0.4990 C.3    97  LYS97       0.0035
    111  CD        28.2940   37.3820   -0.1880 C.3    97  LYS97       0.0206
    112  CE        27.9520   37.3930    1.2980 C.3    97  LYS97       0.1093
    113  NZ        26.8090   38.3110    1.5980 N.3    97  LYS97      -0.1314
    114  N         24.1850   30.5990   -1.5220 N.3   123  PHE123     -0.1241
    115  CA        22.9160   31.1960   -1.9490 C.3   123  PHE123      0.1605
    116  C         22.8110   31.2760   -3.4650 C.2   123  PHE123      0.2264
    117  O         21.7770   30.9530   -4.0390 O.2   123  PHE123     -0.2867
    118  CB        22.7820   32.6130   -1.3710 C.3   123  PHE123      0.0534
    119  CG        21.6860   33.4400   -2.0090 C.ar  123  PHE123     -0.0203
    120  CD1       20.3400   33.1630   -1.7630 C.ar  123  PHE123     -0.0042
    121  CD2       22.0080   34.5100   -2.8450 C.ar  123  PHE123     -0.0042
    122  CE1       19.3280   33.9450   -2.3410 C.ar  123  PHE123     -0.0003
    123  CE2       21.0060   35.2970   -3.4260 C.ar  123  PHE123     -0.0003
    124  CZ        19.6640   35.0140   -3.1720 C.ar  123  PHE123     -0.0000
    125  N         13.4110   37.1760   -3.0050 N.3   135  VAL135     -0.1245
    126  CA        13.6300   36.8220   -1.6140 C.3   135  VAL135      0.1561
    127  C         12.6570   37.6950   -0.8350 C.2   135  VAL135      0.2260
    128  O         12.7910   38.9200   -0.8000 O.2   135  VAL135     -0.2867
    129  CB        15.0870   37.0870   -1.1760 C.3   135  VAL135      0.0252
    130  CG1       15.2290   36.8740    0.3340 C.3   135  VAL135      0.0019
    131  CG2       16.0190   36.1270   -1.9230 C.3   135  VAL135      0.0019
    132  N         11.8440   34.0190    5.9820 N.3   170  THR170     -0.1218
    133  CA        12.1830   34.3150    4.6100 C.3   170  THR170      0.1862
    134  C         11.6610   33.2740    3.6310 C.2   170  THR170      0.2287
    135  O         11.5900   32.0830    3.9420 O.2   170  THR170     -0.2866
    136  CB        13.7180   34.3930    4.4700 C.3   170  THR170      0.1770
    137  OG1       14.2220   35.3940    5.3640 O.3   170  THR170     -0.2211
    138  CG2       14.1180   34.7240    3.0390 C.3   170  THR170      0.0375
    139  N         12.3100   32.0490   -0.3490 N.3   172  LEU172     -0.1245
    140  CA        13.0950   32.1700   -1.5600 C.3   172  LEU172      0.1561
    141  C         12.1450   31.6390   -2.6230 C.2   172  LEU172      0.2260
    142  O         11.7670   30.4680   -2.5920 O.2   172  LEU172     -0.2867
    143  CB        14.3670   31.3180   -1.5010 C.3   172  LEU172      0.0270
    144  CG        15.6330   32.1130   -1.1500 C.3   172  LEU172      0.0019
    145  CD1       15.5720   32.5510    0.3180 C.3   172  LEU172      0.0001
    146  CD2       16.8750   31.2610   -1.4010 C.3   172  LEU172      0.0001
@<TRIPOS>BOND
     1   117   116    2
     2   116   115    1
     3   123   124   ar
     4   123   121   ar
     5   124   122   ar
     6   125   126    1
     7    92    91    2
     8   121   119   ar
     9     7     6    1
    10   141   142    2
    11   141   140    1
    12   122   120   ar
    13   119   120   ar
    14   119   118    1
    15    91    90    1
    16   115   114    1
    17   115   118    1
    18   131   129    1
    19     6     8    1
    20     6     5    1
    21   126   129    1
    22   126   127    1
    23   140   143    1
    24   140   139    1
    25   143   144    1
    26   146   144    1
    27   129   130    1
    28   144   145    1
    29   108   107    2
    30    93    90    1
    31    93    94    1
    32   127   128    2
    33    90    89    1
    34   105   106    1
    35   100    99    2
    36     5     2    1
    37    97    98    1
    38   110   109    1
    39   110   111    1
    40    99    98    1
    41   109   106    1
    42    95    94    1
    43   111   112    1
    44   107   106    1
    45     1     2    1
    46    94    96    1
    47    98   101    1
    48     2     3    1
    49    89    83   am
    50    84    83    2
    51   112   113    1
    52    83    82    1
    53    16    14   am
    54   101   102    1
    55   101   103    1
    56    76    75    2
    57     3     4    2
    58   104   102    1
    59    73    74    1
    60    75    74    1
    61    75    81   am
    62    74    77    1
    63    82    81    1
    64    82    85    1
    65    14    15    2
    66    14    13    1
    67   138   136    1
    68    13    10    1
    69   134   135    2
    70   134   133    1
    71    85    86    1
    72    63    62    1
    73    67    66    2
    74    77    78    1
    75    66    65    1
    76    62    61    1
    77   136   133    1
    78   136   137    1
    79     9    10    1
    80   133   132    1
    81    78    79    2
    82    78    80   am
    83    10    11    1
    84    86    87    2
    85    86    88   am
    86    17    11   am
    87    17    18    1
    88    36    37    1
    89    21    18    1
    90    65    64    1
    91    65    68    1
    92    11    12    2
    93    43    41   ar
    94    60    61    1
    95    60    57    1
    96    18    19    1
    97    59    58    2
    98    68    69    1
    99    41    40    1
   100    41    42   ar
   101    37    40    1
   102    37    38    1
   103    58    57    1
   104    57    56    1
   105    39    38    2
   106    56    54   am
   107    19    20    2
   108    69    70    1
   109    54    53    1
   110    54    55    2
   111    53    52    1
   112    26    23    1
   113    70    71   ar
   114    70    72   ar
   115    22    23    1
   116    52    46   am
   117    23    24    1
   118    35    34    1
   119    46    47    2
   120    46    45    1
   121    24    25    2
   122    50    48    1
   123    34    33    1
   124    44    45    1
   125    45    48    1
   126    33    32    1
   127    48    49    1
   128    32    31    1
   129    49    51    1
   130    31    28    1
   131    27    28    1
   132    28    29    1
   133    29    30    2
