@<TRIPOS>MOLECULE
tmp/2fxuA01.pdb
 195 187 0 0 0
SMALL
GASTEIGER

@<TRIPOS>ATOM
      1  N         25.5000   -9.2560   33.3090 N.3    99  LEU99      -0.1245
      2  CA        26.8080   -9.1410   33.9670 C.3    99  LEU99       0.1561
      3  C         26.9410   -7.9240   34.8940 C.2    99  LEU99       0.2260
      4  O         28.0480   -7.4700   35.1620 O.2    99  LEU99      -0.2867
      5  CB        27.9600   -9.1680   32.9520 C.3    99  LEU99       0.0270
      6  CG        27.9350  -10.3610   31.9780 C.3    99  LEU99       0.0019
      7  CD1       28.9820  -10.2320   30.8900 C.3    99  LEU99       0.0001
      8  CD2       28.0690  -11.6790   32.7170 C.3    99  LEU99       0.0001
      9  N         23.8050   -4.4420   42.0860 N.3   105  ARG105     -0.1245
     10  CA        22.4130   -4.8500   42.3890 C.3   105  ARG105      0.1563
     11  C         22.0750   -4.5940   43.8680 C.2   105  ARG105      0.2260
     12  O         20.9370   -4.2780   44.2270 O.2   105  ARG105     -0.2867
     13  CB        22.1750   -6.3190   42.0230 C.3   105  ARG105      0.0307
     14  CG        20.7130   -6.7500   42.1700 C.3   105  ARG105      0.0489
     15  CD        20.4710   -8.2620   42.0400 C.3   105  ARG105      0.2205
     16  NE        20.4710   -8.7560   40.6550 N.pl3 105  ARG105     -0.0865
     17  CZ        19.9730   -9.9320   40.2880 C.cat 105  ARG105      0.5346
     18  NH1       19.4390  -10.7510   41.1900 N.pl3 105  ARG105      0.1354
     19  NH2       19.9970  -10.3070   39.0140 N.pl3 105  ARG105      0.1354
     20  N         12.3180   -6.1570   43.2940 N.3   122  TYR122     -0.1227
     21  CA        12.9610   -7.2540   42.5770 C.3   122  TYR122      0.1736
     22  C         13.8500   -6.6500   41.5090 C.2   122  TYR122      0.2595
     23  O         13.5420   -5.5700   41.0140 O.2   122  TYR122     -0.2718
     24  CB        11.9040   -8.1300   41.9340 C.3   122  TYR122      0.0548
     25  CG        12.4210   -9.4230   41.3320 C.ar  122  TYR122     -0.0200
     26  CD1       12.6060  -10.5570   42.1240 C.ar  122  TYR122     -0.0009
     27  CD2       12.6840   -9.5270   39.9670 C.ar  122  TYR122     -0.0009
     28  CE1       13.0510  -11.7530   41.5750 C.ar  122  TYR122      0.0417
     29  CE2       13.1370  -10.7330   39.3980 C.ar  122  TYR122      0.0417
     30  CZ        13.3380  -11.8360   40.2180 C.ar  122  TYR122      0.1957
     31  OH        13.7600  -13.0450   39.7460 O.3   122  TYR122     -0.2866
     32  N         14.9670   -7.3020   41.2150 N.am  123  VAL123     -0.1966
     33  CA        15.8480   -6.8680   40.0830 C.3   123  VAL123      0.1727
     34  C         15.9900   -7.9980   39.0610 C.2   123  VAL123      0.2616
     35  O         16.4520   -9.0940   39.3880 O.2   123  VAL123     -0.2715
     36  CB        17.2360   -6.4470   40.5600 C.3   123  VAL123      0.0290
     37  CG1       18.1020   -5.9610   39.4070 C.3   123  VAL123      0.0023
     38  CG2       17.1180   -5.3690   41.6210 C.3   123  VAL123      0.0023
     39  N         15.5710   -7.6950   37.8290 N.am  124  ALA124     -0.1963
     40  CA        15.4800   -8.6470   36.7120 C.3   124  ALA124      0.1728
     41  C         16.4790   -8.2440   35.6230 C.2   124  ALA124      0.2616
     42  O         16.6570   -7.0700   35.3510 O.2   124  ALA124     -0.2715
     43  CB        14.1010   -8.6130   36.1460 C.3   124  ALA124      0.0334
     44  N         17.0710   -9.2310   34.9690 N.am  125  ILE125     -0.1977
     45  CA        17.9880   -8.9790   33.8640 C.3   125  ILE125      0.1596
     46  C         17.2150   -8.6380   32.6020 C.2   125  ILE125      0.2287
     47  O         16.3440   -9.3720   32.1550 O.2   125  ILE125     -0.2864
     48  CB        18.9370  -10.1570   33.6290 C.3   125  ILE125      0.0276
     49  CG1       19.7980  -10.3580   34.8800 C.3   125  ILE125      0.0022
     50  CG2       19.8300   -9.9010   32.3970 C.3   125  ILE125      0.0022
     51  CD1       20.5780  -11.6210   34.7980 C.3   125  ILE125      0.0001
     52  N         16.7450  -11.0430   29.4670 N.3   128  VAL128     -0.1231
     53  CA        15.9450  -12.2320   29.7660 C.3   128  VAL128      0.1692
     54  C         14.4750  -11.8280   29.7870 C.2   128  VAL128      0.2591
     55  O         13.6270  -12.5270   29.2720 O.2   128  VAL128     -0.2718
     56  CB        16.3910  -12.9270   31.0990 C.3   128  VAL128      0.0266
     57  CG1       15.5760  -14.1600   31.3660 C.3   128  VAL128      0.0020
     58  CG2       17.8580  -13.2680   31.0570 C.3   128  VAL128      0.0020
     59  N         14.1730  -10.6580   30.3310 N.am  129  LEU129     -0.1980
     60  CA        12.7810  -10.1320   30.2720 C.3   129  LEU129      0.1596
     61  C         12.3110   -9.9790   28.8460 C.2   129  LEU129      0.2287
     62  O         11.1630  -10.2740   28.5310 O.2   129  LEU129     -0.2864
     63  CB        12.6690   -8.7940   30.9820 C.3   129  LEU129      0.0297
     64  CG        12.7800   -8.7690   32.5070 C.3   129  LEU129      0.0022
     65  CD1       12.6920   -7.3190   32.9580 C.3   129  LEU129      0.0001
     66  CD2       11.6790   -9.6260   33.1710 C.3   129  LEU129      0.0001
     67  N         11.2090  -13.3220   27.6320 N.3   132  TYR132     -0.1241
     68  CA         9.9020  -13.6780   28.2180 C.3   132  TYR132      0.1605
     69  C          8.7840  -12.9520   27.4910 C.2   132  TYR132      0.2264
     70  O          7.7150  -13.5010   27.3220 O.2   132  TYR132     -0.2867
     71  CB         9.8310  -13.3320   29.6930 C.3   132  TYR132      0.0534
     72  CG        10.7600  -14.1040   30.6230 C.ar  132  TYR132     -0.0201
     73  CD1       11.5030  -15.2080   30.2000 C.ar  132  TYR132     -0.0009
     74  CD2       10.8540  -13.7420   31.9680 C.ar  132  TYR132     -0.0009
     75  CE1       12.3500  -15.8870   31.0840 C.ar  132  TYR132      0.0417
     76  CE2       11.6730  -14.4430   32.8610 C.ar  132  TYR132      0.0417
     77  CZ        12.3880  -15.5090   32.4280 C.ar  132  TYR132      0.1957
     78  OH        13.1790  -16.1260   33.3620 O.3   132  TYR132     -0.2866
     79  N          7.3050  -14.7750   24.7630 N.3   135  GLY135     -0.1210
     80  CA         6.7000  -16.0670   25.0980 C.3   135  GLY135      0.1956
     81  C          7.6350  -17.2480   25.1750 C.2   135  GLY135      0.2612
     82  O          7.1980  -18.4060   25.1440 O.2   135  GLY135     -0.2717
     83  N          8.9220  -16.9830   25.3100 N.am  136  ARG136     -0.1965
     84  CA         9.9540  -18.0100   25.2530 C.3   136  ARG136      0.1729
     85  C         10.7550  -18.0620   26.5290 C.2   136  ARG136      0.2616
     86  O         10.9430  -17.0310   27.1920 O.2   136  ARG136     -0.2715
     87  CB        10.9400  -17.6540   24.1440 C.3   136  ARG136      0.0348
     88  CG        10.3670  -17.8190   22.7660 C.3   136  ARG136      0.0492
     89  CD        11.3580  -17.3580   21.7100 C.3   136  ARG136      0.2205
     90  NE        10.8520  -17.6280   20.3630 N.pl3 136  ARG136     -0.0865
     91  CZ         9.9160  -16.9080   19.7610 C.cat 136  ARG136      0.5346
     92  NH1        9.3940  -15.8390   20.3340 N.pl3 136  ARG136      0.1354
     93  NH2        9.4960  -17.2420   18.5610 N.pl3 136  ARG136      0.1354
     94  N         11.2740  -19.2520   26.8290 N.am  137  THR137     -0.1951
     95  CA        12.2220  -19.4460   27.9160 C.3   137  THR137      0.1897
     96  C         13.6100  -19.9360   27.4080 C.2   137  THR137      0.2313
     97  O         14.5640  -19.9700   28.1830 O.2   137  THR137     -0.2863
     98  CB        11.6330  -20.4120   28.9600 C.3   137  THR137      0.1794
     99  OG1       11.3530  -21.6520   28.3170 O.3   137  THR137     -0.2208
    100  CG2       10.3380  -19.8510   29.5300 C.3   137  THR137      0.0378
    101  N         16.0300  -22.4540   29.3260 N.3   156  GLU156     -0.1231
    102  CA        15.0410  -22.8220   30.3300 C.3   156  GLU156      0.1699
    103  C         14.8680  -21.7480   31.3840 C.2   156  GLU156      0.2593
    104  O         14.7730  -22.0090   32.5990 O.2   156  GLU156     -0.2718
    105  CB        15.4200  -24.1520   30.9790 C.3   156  GLU156      0.0402
    106  CG        15.4920  -25.2910   30.0090 C.3   156  GLU156      0.1161
    107  CD        14.2260  -26.0580   29.9880 C.2   156  GLU156      0.3649
    108  OE1       14.1770  -27.0530   30.7350 O.co2 156  GLU156     -0.2457
    109  OE2       13.2820  -25.6460   29.2770 O.co2 156  GLU156     -0.2457
    110  N         14.8760  -20.5000   30.9090 N.am  157  GLY157     -0.1942
    111  CA        14.4840  -19.3530   31.7130 C.3   157  GLY157      0.2014
    112  C         15.6290  -18.4770   32.1980 C.2   157  GLY157      0.2639
    113  O         15.3980  -17.3670   32.6880 O.2   157  GLY157     -0.2714
    114  N         16.8700  -18.9570   32.0630 N.am  158  TYR158     -0.1959
    115  CA        18.0030  -18.2550   32.6680 C.3   158  TYR158      0.1771
    116  C         19.1630  -18.0970   31.7200 C.2   158  TYR158      0.2619
    117  O         19.4420  -18.9800   30.9120 O.2   158  TYR158     -0.2715
    118  CB        18.4390  -18.9850   33.9550 C.3   158  TYR158      0.0574
    119  CG        17.2960  -19.0490   34.9370 C.ar  158  TYR158     -0.0198
    120  CD1       16.4440  -20.1410   34.9570 C.ar  158  TYR158     -0.0009
    121  CD2       17.0050  -17.9770   35.7490 C.ar  158  TYR158     -0.0009
    122  CE1       15.3730  -20.1810   35.8320 C.ar  158  TYR158      0.0417
    123  CE2       15.9530  -18.0130   36.6240 C.ar  158  TYR158      0.0417
    124  CZ        15.1440  -19.0860   36.6420 C.ar  158  TYR158      0.1957
    125  OH        14.1000  -19.0820   37.5320 O.3   158  TYR158     -0.2866
    126  N         19.8010  -16.9350   31.8040 N.am  159  ALA159     -0.1977
    127  CA        20.9370  -16.6150   30.9540 C.3   159  ALA159      0.1597
    128  C         22.1560  -17.5030   31.2590 C.2   159  ALA159      0.2287
    129  O         22.3710  -17.9080   32.4020 O.2   159  ALA159     -0.2864
    130  CB        21.3070  -15.1900   31.1470 C.3   159  ALA159      0.0319
    131  N         25.8920  -17.2680   31.5930 N.3   161  PRO161     -0.2116
    132  CA        26.7680  -16.1000   31.6500 C.3   161  PRO161      0.1372
    133  C         28.1000  -16.2160   30.9290 C.2   161  PRO161      0.2244
    134  O         28.6000  -15.2100   30.4370 O.2   161  PRO161     -0.2868
    135  CB        26.9660  -15.8690   33.1380 C.3   161  PRO161      0.0268
    136  CG        26.7610  -17.1760   33.7540 C.3   161  PRO161      0.0207
    137  CD        25.7100  -17.8860   32.9210 C.3   161  PRO161      0.0892
    138  N         27.6760  -14.8380   27.3380 N.3   164  ILE164     -0.1245
    139  CA        27.2140  -13.4700   27.0910 C.3   164  ILE164      0.1561
    140  C         28.3060  -12.6650   26.4070 C.2   164  ILE164      0.2260
    141  O         29.4830  -12.7200   26.7970 O.2   164  ILE164     -0.2867
    142  CB        26.7400  -12.8310   28.4130 C.3   164  ILE164      0.0252
    143  CG1       25.4690  -13.5170   28.9000 C.3   164  ILE164      0.0019
    144  CG2       26.5560  -11.3030   28.3040 C.3   164  ILE164      0.0019
    145  CD1       25.0350  -13.1150   30.2220 C.3   164  ILE164      0.0001
    146  N          4.7510   -8.4180   32.5340 N.3   334  ILE334     -0.1231
    147  CA         4.1990   -9.7900   32.4900 C.3   334  ILE334      0.1692
    148  C          4.6830  -10.5750   33.7040 C.2   334  ILE334      0.2591
    149  O          3.8610  -11.1700   34.4420 O.2   334  ILE334     -0.2718
    150  CB         4.6100  -10.5190   31.2050 C.3   334  ILE334      0.0266
    151  CG1        3.9820   -9.8260   29.9900 C.3   334  ILE334      0.0019
    152  CG2        4.1820  -11.9760   31.2520 C.3   334  ILE334      0.0020
    153  CD1        4.5630  -10.2180   28.7160 C.3   334  ILE334      0.0001
    154  N          5.9910  -10.5550   33.9550 N.am  335  LEU335     -0.1980
    155  CA         6.5560  -11.2640   35.1130 C.3   335  LEU335      0.1596
    156  C          5.9770  -10.8000   36.4590 C.2   335  LEU335      0.2287
    157  O          5.5760  -11.6330   37.2790 O.2   335  LEU335     -0.2864
    158  CB         8.0810  -11.1300   35.1390 C.3   335  LEU335      0.0297
    159  CG         8.8510  -11.8930   36.2290 C.3   335  LEU335      0.0022
    160  CD1        8.6320  -13.3860   36.1070 C.3   335  LEU335      0.0001
    161  CD2       10.3750  -11.6230   36.2850 C.3   335  LEU335      0.0001
    162  N          2.5260  -12.2710   37.4410 N.3   338  LEU338     -0.1245
    163  CA         2.2670  -13.7170   37.5530 C.3   338  LEU338      0.1561
    164  C          1.9730  -14.0950   38.9800 C.2   338  LEU338      0.2260
    165  O          2.6750  -13.6540   39.8780 O.2   338  LEU338     -0.2867
    166  CB         3.4840  -14.5290   37.1220 C.3   338  LEU338      0.0270
    167  CG         3.7660  -14.7740   35.6520 C.3   338  LEU338      0.0019
    168  CD1        5.0280  -15.6120   35.5640 C.3   338  LEU338      0.0001
    169  CD2        2.6020  -15.4720   34.9500 C.3   338  LEU338      0.0001
    170  N          2.5350  -16.9210   40.3870 N.3   340  THR340     -0.1203
    171  CA         3.7100  -17.6420   40.8590 C.3   340  THR340      0.1994
    172  C          4.9550  -16.7770   41.1270 C.2   340  THR340      0.2617
    173  O          5.9370  -17.2660   41.7130 O.2   340  THR340     -0.2717
    174  CB         4.0960  -18.7400   39.8820 C.3   340  THR340      0.1784
    175  OG1        5.3380  -19.3310   40.3010 O.3   340  THR340     -0.2211
    176  CG2        4.2230  -18.1750   38.4690 C.3   340  THR340      0.0376
    177  N          4.9160  -15.5120   40.7010 N.am  341  PHE341     -0.1975
    178  CA         5.9680  -14.5520   41.0150 C.3   341  PHE341      0.1639
    179  C          5.8140  -13.8570   42.3520 C.2   341  PHE341      0.2290
    180  O          6.7830  -13.3050   42.8710 O.2   341  PHE341     -0.2864
    181  CB         6.0260  -13.4590   39.9370 C.3   341  PHE341      0.0560
    182  CG         7.1490  -12.4810   40.1260 C.ar  341  PHE341     -0.0200
    183  CD1        8.4560  -12.8710   39.9120 C.ar  341  PHE341     -0.0042
    184  CD2        6.8960  -11.1770   40.5190 C.ar  341  PHE341     -0.0042
    185  CE1        9.4950  -11.9600   40.0680 C.ar  341  PHE341     -0.0003
    186  CE2        7.9220  -10.2880   40.6850 C.ar  341  PHE341     -0.0003
    187  CZ         9.2220  -10.6770   40.4670 C.ar  341  PHE341     -0.0000
    188  N          8.2230  -14.2060   45.0050 N.3   344  MET344     -0.1245
    189  CA         9.6070  -13.8700   44.6740 C.3   344  MET344      0.1570
    190  C         10.0180  -12.4400   44.9920 C.2   344  MET344      0.2261
    191  O         11.2090  -12.1440   45.0180 O.2   344  MET344     -0.2867
    192  CB         9.8780  -14.1870   43.2100 C.3   344  MET344      0.0387
    193  CG         9.7510  -15.6540   42.9220 C.3   344  MET344      0.0595
    194  SD        10.3240  -16.0700   41.2860 S.3   344  MET344     -0.1393
    195  CE        12.0950  -16.0370   41.4840 C.3   344  MET344      0.0692
@<TRIPOS>BOND
     1    93    91    1
     2    91    92    1
     3    91    90    2
     4    90    89    1
     5    89    88    1
     6    88    87    1
     7    87    84    1
     8    79    80    1
     9    80    81    1
    10    82    81    2
    11    81    83   am
    12    84    83    1
    13    84    85    1
    14   140   141    2
    15   140   139    1
    16    85    94   am
    17    85    86    2
    18    94    95    1
    19   139   138    1
    20   139   142    1
    21    70    69    2
    22    96    95    1
    23    96    97    2
    24    69    68    1
    25    67    68    1
    26    95    98    1
    27    68    71    1
    28   144   142    1
    29    99    98    1
    30   142   143    1
    31    62    61    2
    32   153   151    1
    33    61    60    1
    34   143   145    1
    35    98   100    1
    36    55    54    2
    37   109   107   ar
    38   101   102    1
    39    52    53    1
    40    71    72    1
    41    53    54    1
    42    53    56    1
    43    54    59   am
    44   107   106    1
    45   107   108   ar
    46   151   150    1
    47   106   105    1
    48    73    72   ar
    49    73    75   ar
    50    60    59    1
    51    60    63    1
    52   102   105    1
    53   102   103    1
    54   134   133    2
    55    72    74   ar
    56     7     6    1
    57   110   103   am
    58   110   111    1
    59   117   116    2
    60   133   132    1
    61   127   130    1
    62   127   128    1
    63   127   126    1
    64    63    64    1
    65    58    56    1
    66    75    77   ar
    67    56    57    1
    68   150   152    1
    69   150   147    1
    70   128   129    2
    71   103   104    2
    72   131   132    1
    73   131   137    1
    74   132   135    1
    75   111   112    1
    76   116   126   am
    77   116   115    1
    78    74    76   ar
    79     6     8    1
    80     6     5    1
    81   114   112   am
    82   114   115    1
    83    47    46    2
    84   112   113    2
    85    50    48    1
    86    77    76   ar
    87    77    78    1
    88   147   146    1
    89   147   148    1
    90    64    65    1
    91    64    66    1
    92    46    45    1
    93   115   118    1
    94   137   136    1
    95     5     2    1
    96   135   136    1
    97     1     2    1
    98    48    45    1
    99    48    49    1
   100   148   154   am
   101   148   149    2
   102    45    44    1
   103   118   119    1
   104   154   155    1
   105     2     3    1
   106    51    49    1
   107     3     4    2
   108   119   120   ar
   109   119   121   ar
   110   169   167    1
   111   120   122   ar
   112    44    41   am
   113   155   158    1
   114   155   156    1
   115   158   159    1
   116    42    41    2
   117   168   167    1
   118    41    40    1
   119   167   166    1
   120   121   123   ar
   121   122   124   ar
   122   160   159    1
   123    43    40    1
   124   159   161    1
   125   156   157    2
   126   123   124   ar
   127   124   125    1
   128    40    39    1
   129   166   163    1
   130   162   163    1
   131   163   164    1
   132    39    34   am
   133   176   174    1
   134   164   165    2
   135    19    17    1
   136    34    35    2
   137    34    33    1
   138    29    27   ar
   139    29    30   ar
   140    37    36    1
   141    31    30    1
   142   174   175    1
   143   174   171    1
   144   183   185   ar
   145   183   182   ar
   146   181   182    1
   147   181   178    1
   148    27    25   ar
   149   185   187   ar
   150    33    36    1
   151    33    32    1
   152   182   184   ar
   153    30    28   ar
   154    17    16    2
   155    17    18    1
   156   170   171    1
   157   187   186   ar
   158   184   186   ar
   159    36    38    1
   160    16    15    1
   161   177   178    1
   162   177   172   am
   163   171   172    1
   164    23    22    2
   165   178   179    1
   166   172   173    2
   167    32    22   am
   168   194   195    1
   169   194   193    1
   170    25    24    1
   171    25    26   ar
   172    22    21    1
   173    28    26   ar
   174    24    21    1
   175    13    14    1
   176    13    10    1
   177    15    14    1
   178     9    10    1
   179   179   180    2
   180    10    11    1
   181    21    20    1
   182   193   192    1
   183   192   189    1
   184    11    12    2
   185   189   190    1
   186   189   188    1
   187   190   191    2
