@<TRIPOS>MOLECULE
tmp/2fxvA00.pdb
 176 173 0 0 0
SMALL
GASTEIGER

@<TRIPOS>ATOM
      1  N         19.3910   20.3330   -3.9770 N.3    19  VAL19      -0.1231
      2  CA        19.4080   21.0160   -2.6850 C.3    19  VAL19       0.1692
      3  C         19.4310   22.5360   -2.7390 C.2    19  VAL19       0.2592
      4  O         20.1780   23.1210   -3.5190 O.2    19  VAL19      -0.2718
      5  CB        20.6370   20.5550   -1.8580 C.3    19  VAL19       0.0266
      6  CG1       20.6500   21.2410   -0.5040 C.3    19  VAL19       0.0020
      7  CG2       20.6130   19.0450   -1.6920 C.3    19  VAL19       0.0020
      8  N         18.6140   23.1660   -1.8960 N.am   20  LEU20      -0.1966
      9  CA        18.5480   24.6260   -1.8030 C.3    20  LEU20       0.1728
     10  C         19.0190   25.0310   -0.4150 C.2    20  LEU20       0.2616
     11  O         18.5340   24.5050    0.5950 O.2    20  LEU20      -0.2715
     12  CB        17.1180   25.1400   -2.0010 C.3    20  LEU20       0.0311
     13  CG        16.9340   26.6430   -1.7270 C.3    20  LEU20       0.0022
     14  CD1       17.7940   27.4500   -2.6860 C.3    20  LEU20       0.0001
     15  CD2       15.4730   27.0260   -1.8760 C.3    20  LEU20       0.0001
     16  N         19.9630   25.9640   -0.3700 N.am   21  LYS21      -0.1963
     17  CA        20.5160   26.4410    0.8870 C.3    21  LYS21       0.1728
     18  C         19.9050   27.7870    1.2610 C.2    21  LYS21       0.2616
     19  O         20.0380   28.7560    0.5220 O.2    21  LYS21      -0.2715
     20  CB        22.0340   26.5770    0.7450 C.3    21  LYS21       0.0311
     21  CG        22.7540   27.1430    1.9590 C.3    21  LYS21       0.0038
     22  CD        24.2410   27.2770    1.6590 C.3    21  LYS21       0.0206
     23  CE        25.0260   27.7860    2.8520 C.3    21  LYS21       0.1093
     24  NZ        26.4830   27.8220    2.5370 N.3    21  LYS21      -0.1314
     25  N         19.2280   27.8380    2.4030 N.am   22  VAL22      -0.1963
     26  CA        18.6130   29.0710    2.8890 C.3    22  VAL22       0.1727
     27  C         19.0470   29.3200    4.3300 C.2    22  VAL22       0.2616
     28  O         18.2280   29.6180    5.2010 O.2    22  VAL22      -0.2715
     29  CB        17.0710   29.0000    2.8290 C.3    22  VAL22       0.0290
     30  CG1       16.6060   29.0760    1.3810 C.3    22  VAL22       0.0023
     31  CG2       16.5840   27.7180    3.4670 C.3    22  VAL22       0.0023
     32  N         20.3460   29.1870    4.5710 N.am   23  ASP23      -0.1971
     33  CA        20.9190   29.3820    5.8990 C.3    23  ASP23       0.1709
     34  C         20.8240   30.8230    6.3880 C.2    23  ASP23       0.2293
     35  O         20.8390   31.0740    7.5960 O.2    23  ASP23      -0.2864
     36  CB        22.3910   28.9520    5.9010 C.3    23  ASP23       0.1436
     37  CG        22.5650   27.4450    5.9970 C.2    23  ASP23       0.3671
     38  OD1       21.5890   26.7030    5.7610 O.co2  23  ASP23      -0.2456
     39  OD2       23.6900   27.0010    6.3030 O.co2  23  ASP23      -0.2456
     40  N         17.4770   28.1230    8.0970 N.3    27  ASN27      -0.1240
     41  CA        18.2290   27.0030    8.6590 C.3    27  ASN27       0.1653
     42  C         19.4410   27.2090    9.5620 C.2    27  ASN27       0.2266
     43  O         19.9840   26.2400   10.0830 O.2    27  ASN27      -0.2867
     44  CB        18.6340   26.0810    7.5040 C.3    27  ASN27       0.1155
     45  CG        17.4370   25.5090    6.7740 C.2    27  ASN27       0.2627
     46  OD1       17.5300   25.1130    5.6150 O.2    27  ASN27      -0.2716
     47  ND2       16.3040   25.4510    7.4580 N.am   27  ASN27      -0.0877
     48  N         15.2500   23.2170   12.7520 N.3    60  SER60      -0.1217
     49  CA        14.7730   24.2260   11.8080 C.3    60  SER60       0.1889
     50  C         13.2590   24.3960   11.8040 C.2    60  SER60       0.2288
     51  O         12.7500   25.4590   11.4500 O.2    60  SER60      -0.2866
     52  CB        15.2530   23.8920   10.3920 C.3    60  SER60       0.2089
     53  OG        16.6320   24.1810   10.2370 O.3    60  SER60      -0.2183
     54  N         14.0560    8.0130   10.8490 N.3    96  VAL96      -0.1231
     55  CA        14.0690    8.9790    9.7580 C.3    96  VAL96       0.1692
     56  C         15.4090    8.9880    9.0240 C.2    96  VAL96       0.2592
     57  O         16.4670    9.0710    9.6500 O.2    96  VAL96      -0.2718
     58  CB        13.7920   10.4190   10.2730 C.3    96  VAL96       0.0266
     59  CG1       13.8930   11.4150    9.1220 C.3    96  VAL96       0.0020
     60  CG2       12.4210   10.4930   10.9120 C.3    96  VAL96       0.0020
     61  N         15.3560    8.8980    7.6980 N.am   97  TYR97      -0.1962
     62  CA        16.5660    8.9270    6.8780 C.3    97  TYR97       0.1771
     63  C         16.7620   10.3580    6.3820 C.2    97  TYR97       0.2620
     64  O         15.9560   10.8630    5.6010 O.2    97  TYR97      -0.2715
     65  CB        16.4340    7.9770    5.6830 C.3    97  TYR97       0.0574
     66  CG        17.6930    7.8860    4.8410 C.ar   97  TYR97      -0.0198
     67  CD1       18.8410    7.2580    5.3300 C.ar   97  TYR97      -0.0009
     68  CD2       17.7460    8.4510    3.5670 C.ar   97  TYR97      -0.0009
     69  CE1       20.0100    7.1980    4.5700 C.ar   97  TYR97       0.0417
     70  CE2       18.9080    8.3980    2.8000 C.ar   97  TYR97       0.0417
     71  CZ        20.0350    7.7720    3.3070 C.ar   97  TYR97       0.1957
     72  OH        21.1830    7.7330    2.5510 O.3    97  TYR97      -0.2866
     73  N         17.8230   11.0100    6.8490 N.am   98  SER98      -0.1936
     74  CA        18.1160   12.3840    6.4550 C.3    98  SER98       0.2055
     75  C         18.3540   12.4790    4.9580 C.2    98  SER98       0.2643
     76  O         19.1620   11.7400    4.4000 O.2    98  SER98      -0.2714
     77  CB        19.3500   12.9070    7.2030 C.3    98  SER98       0.2130
     78  OG        19.6890   14.2220    6.7830 O.3    98  SER98      -0.2179
     79  N         17.6390   13.3880    4.3090 N.am   99  PHE99      -0.1959
     80  CA        17.7830   13.5690    2.8730 C.3    99  PHE99       0.1771
     81  C         19.1220   14.2090    2.5300 C.2    99  PHE99       0.2620
     82  O         19.7800   13.8290    1.5640 O.2    99  PHE99      -0.2715
     83  CB        16.6720   14.4680    2.3350 C.3    99  PHE99       0.0574
     84  CG        16.7670   14.7190    0.8660 C.ar   99  PHE99      -0.0200
     85  CD1       16.2670   13.7920   -0.0380 C.ar   99  PHE99      -0.0042
     86  CD2       17.4040   15.8560    0.3810 C.ar   99  PHE99      -0.0042
     87  CE1       16.4000   13.9910   -1.4040 C.ar   99  PHE99      -0.0003
     88  CE2       17.5430   16.0650   -0.9830 C.ar   99  PHE99      -0.0003
     89  CZ        17.0420   15.1320   -1.8780 C.ar   99  PHE99      -0.0000
     90  N         19.5190   15.1840    3.3390 N.am  100  THR100     -0.1951
     91  CA        20.7490   15.9210    3.1130 C.3   100  THR100      0.1897
     92  C         22.0100   15.2590    3.6580 C.2   100  THR100      0.2313
     93  O         23.1080   15.5080    3.1580 O.2   100  THR100     -0.2863
     94  CB        20.6300   17.3540    3.7010 C.3   100  THR100      0.1794
     95  OG1       20.0840   17.2890    5.0280 O.3   100  THR100     -0.2208
     96  CG2       19.7310   18.2220    2.8190 C.3   100  THR100      0.0378
     97  N          7.1190   21.5650    9.3110 N.3   124  ASP124     -0.1225
     98  CA         8.5490   21.3370    9.0830 C.3   124  ASP124      0.1805
     99  C          9.0600   22.2890    8.0100 C.2   124  ASP124      0.2598
    100  O          8.2770   22.8370    7.2330 O.2   124  ASP124     -0.2718
    101  CB         8.8330   19.8840    8.6910 C.3   124  ASP124      0.1424
    102  CG        10.2690   19.4650    9.0140 C.2   124  ASP124      0.3668
    103  OD1       10.9280   20.1690    9.8110 O.co2 124  ASP124     -0.2456
    104  OD2       10.7340   18.4280    8.4900 O.co2 124  ASP124     -0.2456
    105  N         10.3730   22.4880    7.9730 N.am  125  ASP125     -0.1960
    106  CA        10.9800   23.4180    7.0290 C.3   125  ASP125      0.1840
    107  C         11.0250   22.9740    5.5590 C.2   125  ASP125      0.2622
    108  O         10.5980   23.7160    4.6870 O.2   125  ASP125     -0.2715
    109  CB        12.3870   23.8080    7.5260 C.3   125  ASP125      0.1450
    110  CG        13.3800   22.6400    7.5030 C.2   125  ASP125      0.3671
    111  OD1       12.9870   21.4870    7.7850 O.co2 125  ASP125     -0.2456
    112  OD2       14.5700   22.8900    7.2170 O.co2 125  ASP125     -0.2456
    113  N         11.5280   21.7760    5.2840 N.am  126  PHE126     -0.1960
    114  CA        11.6100   21.2770    3.9130 C.3   126  PHE126      0.1771
    115  C         10.8970   19.9510    3.6910 C.2   126  PHE126      0.2619
    116  O         10.7680   19.1340    4.6010 O.2   126  PHE126     -0.2715
    117  CB        13.0680   21.0670    3.4920 C.3   126  PHE126      0.0574
    118  CG        13.7240   22.2810    2.9030 C.ar  126  PHE126     -0.0200
    119  CD1       14.3740   23.2040    3.7130 C.ar  126  PHE126     -0.0042
    120  CD2       13.7070   22.4880    1.5250 C.ar  126  PHE126     -0.0042
    121  CE1       15.0030   24.3170    3.1610 C.ar  126  PHE126     -0.0003
    122  CE2       14.3300   23.5970    0.9590 C.ar  126  PHE126     -0.0003
    123  CZ        14.9820   24.5160    1.7770 C.ar  126  PHE126     -0.0000
    124  N         10.4420   19.7460    2.4600 N.am  127  LEU127     -0.1963
    125  CA         9.8110   18.4970    2.0610 C.3   127  LEU127      0.1728
    126  C         10.5710   18.0500    0.8180 C.2   127  LEU127      0.2616
    127  O         10.5560   18.7350   -0.2070 O.2   127  LEU127     -0.2715
    128  CB         8.3310   18.6910    1.7320 C.3   127  LEU127      0.0311
    129  CG         7.6040   17.4640    1.1530 C.3   127  LEU127      0.0022
    130  CD1        7.8820   16.2230    2.0010 C.3   127  LEU127      0.0001
    131  CD2        6.1080   17.7470    1.0830 C.3   127  LEU127      0.0001
    132  N         11.2610   16.9170    0.9260 N.am  128  ALA128     -0.1963
    133  CA        12.0430   16.3770   -0.1820 C.3   128  ALA128      0.1728
    134  C         11.5030   15.0040   -0.5760 C.2   128  ALA128      0.2616
    135  O         10.6570   14.9010   -1.4680 O.2   128  ALA128     -0.2715
    136  CB        13.5100   16.2760    0.2170 C.3   128  ALA128      0.0334
    137  N         11.9960   13.9530    0.0750 N.am  129  ASN129     -0.1958
    138  CA        11.5180   12.6050   -0.2110 C.3   129  ASN129      0.1819
    139  C         10.4090   12.1850    0.7600 C.2   129  ASN129      0.2622
    140  O          9.8310   11.1050    0.6260 O.2   129  ASN129     -0.2715
    141  CB        12.6750   11.6030   -0.1780 C.3   129  ASN129      0.1195
    142  CG        13.5580   11.6970   -1.4190 C.2   129  ASN129      0.2630
    143  OD1       13.1260   12.1850   -2.4640 O.2   129  ASN129     -0.2716
    144  ND2       14.7880   11.2140   -1.3120 N.am  129  ASN129     -0.0877
    145  N         10.1170   13.0510    1.7290 N.am  130  GLY130     -0.1940
    146  CA         9.0570   12.7890    2.6910 C.3   130  GLY130      0.2014
    147  C          9.3620   11.9520    3.9240 C.2   130  GLY130      0.2639
    148  O          8.4450   11.6210    4.6770 O.2   130  GLY130     -0.2714
    149  N         10.6320   11.6220    4.1520 N.am  131  GLN131     -0.1963
    150  CA        11.0190   10.8060    5.3090 C.3   131  GLN131      0.1733
    151  C         10.6460   11.4150    6.6630 C.2   131  GLN131      0.2616
    152  O         10.0350   10.7520    7.5080 O.2   131  GLN131     -0.2715
    153  CB        12.5280   10.5320    5.2800 C.3   131  GLN131      0.0408
    154  CG        12.9630    9.6050    4.1730 C.3   131  GLN131      0.0908
    155  CD        12.3140    8.2420    4.2900 C.2   131  GLN131      0.2608
    156  OE1       12.4760    7.5490    5.2980 O.2   131  GLN131     -0.2717
    157  NE2       11.5720    7.8500    3.2620 N.am  131  GLN131     -0.0878
    158  N         11.0230   12.6700    6.8720 N.am  132  ALA132     -0.1963
    159  CA        10.7270   13.3490    8.1320 C.3   132  ALA132      0.1728
    160  C          9.2250   13.4510    8.3850 C.2   132  ALA132      0.2616
    161  O          8.7680   13.1910    9.4930 O.2   132  ALA132     -0.2715
    162  CB        11.3670   14.7500    8.1410 C.3   132  ALA132      0.0334
    163  N          8.4610   13.8280    7.3610 N.am  133  ALA133     -0.1977
    164  CA         7.0100   13.9500    7.4990 C.3   133  ALA133      0.1597
    165  C          6.3780   12.6160    7.9070 C.2   133  ALA133      0.2287
    166  O          5.5580   12.5690    8.8290 O.2   133  ALA133     -0.2864
    167  CB         6.4000   14.4450    6.2000 C.3   133  ALA133      0.0319
    168  N         10.0110   20.7940   -2.4590 N.3   156  LYS156     -0.1245
    169  CA        10.6370   20.5840   -3.7480 C.3   156  LYS156      0.1561
    170  C          9.6720   19.6780   -4.5070 C.2   156  LYS156      0.2260
    171  O          9.7100   18.4520   -4.3920 O.2   156  LYS156     -0.2867
    172  CB        12.0310   19.9690   -3.5750 C.3   156  LYS156      0.0271
    173  CG        13.0860   21.0360   -3.2340 C.3   156  LYS156      0.0035
    174  CD        14.4500   20.4450   -2.9280 C.3   156  LYS156      0.0206
    175  CE        14.4400   19.7090   -1.6040 C.3   156  LYS156      0.1093
    176  NZ        15.6860   18.9200   -1.4440 N.3   156  LYS156     -0.1314
@<TRIPOS>BOND
     1   170   171    2
     2   170   169    1
     3     1     2    1
     4   169   172    1
     5   169   168    1
     6   172   173    1
     7     4     3    2
     8   173   174    1
     9   174   175    1
    10     3     2    1
    11     3     8   am
    12    14    13    1
    13     2     5    1
    14   143   142    2
    15    12     9    1
    16    12    13    1
    17     8     9    1
    18    89    87   ar
    19    89    88   ar
    20    15    13    1
    21     5     7    1
    22     5     6    1
    23     9    10    1
    24   175   176    1
    25   135   134    2
    26   142   144   am
    27   142   141    1
    28    87    85   ar
    29    88    86   ar
    30   134   133    1
    31   134   137   am
    32    10    16   am
    33    10    11    2
    34    16    17    1
    35   138   141    1
    36   138   137    1
    37   138   139    1
    38   127   126    2
    39   133   136    1
    40   133   132    1
    41    85    84   ar
    42    86    84   ar
    43    19    18    2
    44   140   139    2
    45    20    17    1
    46    20    21    1
    47   139   145   am
    48   126   132   am
    49   126   125    1
    50    84    83    1
    51    17    18    1
    52   122   120   ar
    53   122   123   ar
    54   131   129    1
    55   129   128    1
    56   129   130    1
    57    18    25   am
    58    30    29    1
    59   120   118   ar
    60    82    81    2
    61    22    21    1
    62    22    23    1
    63   145   146    1
    64   128   125    1
    65   123   121   ar
    66   125   124    1
    67    83    80    1
    68    25    26    1
    69   124   115   am
    70    81    80    1
    71    81    90   am
    72    24    23    1
    73    72    71    1
    74   146   147    1
    75    70    71   ar
    76    70    68   ar
    77    96    94    1
    78    29    26    1
    79    29    31    1
    80    80    79    1
    81    26    27    1
    82   118   117    1
    83   118   119   ar
    84    91    90    1
    85    91    92    1
    86    91    94    1
    87    93    92    2
    88   121   119   ar
    89   157   155   am
    90    71    69   ar
    91   117   114    1
    92    68    66   ar
    93   115   114    1
    94   115   116    2
    95    94    95    1
    96   114   113    1
    97   147   149   am
    98   147   148    2
    99   149   150    1
   100   154   155    1
   101   154   153    1
   102   155   156    2
   103    79    75   am
   104    27    32   am
   105    27    28    2
   106    76    75    2
   107    69    67   ar
   108    32    33    1
   109   108   107    2
   110    66    67   ar
   111    66    65    1
   112    75    74    1
   113   153   150    1
   114   113   107   am
   115   150   151    1
   116   107   106    1
   117    64    63    2
   118    46    45    2
   119    65    62    1
   120    38    37   ar
   121    33    36    1
   122    33    34    1
   123    36    37    1
   124    37    39   ar
   125   167   164    1
   126    63    73   am
   127    63    62    1
   128    34    35    2
   129    74    73    1
   130    74    77    1
   131   151   158   am
   132   151   152    2
   133    45    47   am
   134    45    44    1
   135    78    77    1
   136   158   159    1
   137    62    61    1
   138   106   109    1
   139   106   105    1
   140   112   110   ar
   141   100    99    2
   142   163   164    1
   143   163   160   am
   144   164   165    1
   145   110   109    1
   146   110   111   ar
   147    44    41    1
   148    61    56   am
   149   165   166    2
   150   105    99   am
   151    99    98    1
   152    40    41    1
   153   159   162    1
   154   159   160    1
   155   160   161    2
   156   104   102   ar
   157    41    42    1
   158   101   102    1
   159   101    98    1
   160   102   103   ar
   161    56    57    2
   162    56    55    1
   163    98    97    1
   164    59    58    1
   165    42    43    2
   166    55    58    1
   167    55    54    1
   168    53    52    1
   169    58    60    1
   170    52    49    1
   171    51    50    2
   172    50    49    1
   173    49    48    1
