@<TRIPOS>MOLECULE
tmp/2fy3A00.pdb
 124 118 0 0 0
SMALL
GASTEIGER

@<TRIPOS>ATOM
      1  N         -3.1580   -1.1240   68.1160 N.3    77  MET77      -0.1230
      2  CA        -2.0280   -0.2810   67.7940 C.3    77  MET77       0.1702
      3  C         -2.2300    0.5820   66.5550 C.2    77  MET77       0.2592
      4  O         -1.7700    1.7180   66.5520 O.2    77  MET77      -0.2718
      5  CB        -0.7690   -1.1390   67.6120 C.3    77  MET77       0.0401
      6  CG         0.5250   -0.3530   67.5650 C.3    77  MET77       0.0596
      7  SD         0.8510    0.5550   69.0960 S.3    77  MET77      -0.1393
      8  CE         2.4540    1.2720   68.7220 C.3    77  MET77       0.0692
      9  N         -2.9070    0.0800   65.5120 N.am   78  TYR78      -0.1976
     10  CA        -3.0420    0.9550   64.3380 C.3    78  TYR78       0.1639
     11  C         -4.4250    1.0750   63.6870 C.2    78  TYR78       0.2290
     12  O         -4.9290    2.1880   63.5380 O.2    78  TYR78      -0.2864
     13  CB        -2.0220    0.5400   63.2600 C.3    78  TYR78       0.0560
     14  CG        -0.5730    0.5820   63.6980 C.ar   78  TYR78      -0.0198
     15  CD1        0.0470   -0.5820   64.1350 C.ar   78  TYR78      -0.0009
     16  CD2        0.1750    1.7470   63.6710 C.ar   78  TYR78      -0.0009
     17  CE1        1.3700   -0.5820   64.5330 C.ar   78  TYR78       0.0417
     18  CE2        1.4990    1.7590   64.0670 C.ar   78  TYR78       0.0417
     19  CZ         2.0920    0.5920   64.4960 C.ar   78  TYR78       0.1957
     20  OH         3.4040    0.6030   64.9100 O.3    78  TYR78      -0.2866
     21  N          1.6490   11.0620   62.5650 N.3    88  ASN88      -0.1240
     22  CA         1.0680   10.2970   63.6650 C.3    88  ASN88       0.1653
     23  C          1.3680    8.7960   63.6230 C.2    88  ASN88       0.2266
     24  O          1.5960    8.1760   64.6650 O.2    88  ASN88      -0.2867
     25  CB        -0.4610   10.4920   63.7090 C.3    88  ASN88       0.1155
     26  CG        -0.8720   11.9470   63.9560 C.2    88  ASN88       0.2627
     27  OD1       -0.5430   12.5370   64.9920 O.2    88  ASN88      -0.2716
     28  ND2       -1.6050   12.5260   63.0020 N.am   88  ASN88      -0.0877
     29  N          6.0760    6.0750   59.7360 N.3    91  PRO91      -0.2116
     30  CA         7.4440    6.5650   59.9160 C.3    91  PRO91       0.1372
     31  C          8.1090    6.7690   58.5540 C.2    91  PRO91       0.2244
     32  O          7.6290    6.2700   57.5360 O.2    91  PRO91      -0.2868
     33  CB         8.1030    5.4570   60.7350 C.3    91  PRO91       0.0268
     34  CG         7.3840    4.2250   60.2720 C.3    91  PRO91       0.0207
     35  CD         5.9450    4.6660   60.1560 C.3    91  PRO91       0.0892
     36  N          2.8220    1.7910   58.7100 N.3   313  HIS313     -0.1241
     37  CA         3.2190    0.9100   59.7920 C.3   313  HIS313      0.1621
     38  C          2.4620   -0.3880   60.0680 C.2   313  HIS313      0.2264
     39  O          3.0390   -1.3330   60.5900 O.2   313  HIS313     -0.2867
     40  CB         3.2210    1.7060   61.0740 C.3   313  HIS313      0.0745
     41  CG         4.4030    1.3650   61.9800 C.ar  313  HIS313      0.0817
     42  ND1        4.7650    0.0820   62.2890 N.ar  313  HIS313     -0.2268
     43  CD2        5.2820    2.1790   62.6330 C.ar  313  HIS313      0.1154
     44  CE1        5.8100    0.0980   63.1070 C.ar  313  HIS313      0.1986
     45  NE2        6.1300    1.3630   63.3250 N.ar  313  HIS313     -0.2212
     46  N          7.1290   -3.8260   60.9320 N.3   317  ASP317     -0.1225
     47  CA         7.8500   -2.8780   61.7630 C.3   317  ASP317      0.1805
     48  C          9.2030   -2.4420   61.2020 C.2   317  ASP317      0.2598
     49  O          9.6180   -2.8960   60.1310 O.2   317  ASP317     -0.2718
     50  CB         7.9800   -3.4460   63.1770 C.3   317  ASP317      0.1424
     51  CG         6.6400   -3.8790   63.7440 C.2   317  ASP317      0.3668
     52  OD1        5.6800   -3.0770   63.6930 O.co2 317  ASP317     -0.2456
     53  OD2        6.5390   -5.0200   64.2360 O.co2 317  ASP317     -0.2456
     54  N          9.8610   -1.5600   61.9430 N.am  318  GLY318     -0.1957
     55  CA        11.1360   -0.9400   61.5700 C.3   318  GLY318      0.1869
     56  C         12.2890   -1.8750   61.1560 C.2   318  GLY318      0.2309
     57  O         12.9600   -1.5980   60.1550 O.2   318  GLY318     -0.2863
     58  N          7.1380    4.1920   76.0780 N.3   422  TYR422     -0.1241
     59  CA         7.0290    3.0630   75.1800 C.3   422  TYR422      0.1605
     60  C          8.3480    2.8310   74.4400 C.2   422  TYR422      0.2264
     61  O          9.0140    3.7760   74.0170 O.2   422  TYR422     -0.2867
     62  CB         5.9350    3.3300   74.1410 C.3   422  TYR422      0.0534
     63  CG         5.7030    2.1890   73.1700 C.ar  422  TYR422     -0.0201
     64  CD1        4.6980    1.2440   73.4050 C.ar  422  TYR422     -0.0009
     65  CD2        6.4790    2.0540   72.0160 C.ar  422  TYR422     -0.0009
     66  CE1        4.4630    0.1980   72.5190 C.ar  422  TYR422      0.0417
     67  CE2        6.2560    0.9990   71.1180 C.ar  422  TYR422      0.0417
     68  CZ         5.2400    0.0770   71.3790 C.ar  422  TYR422      0.1957
     69  OH         4.9810   -0.9580   70.5060 O.3   422  TYR422     -0.2866
     70  N          9.5510   -0.1410   71.5760 N.3   424  SER424     -0.1217
     71  CA         9.2290   -1.3340   70.8140 C.3   424  SER424      0.1889
     72  C         10.1870   -2.4510   71.1860 C.2   424  SER424      0.2288
     73  O         11.3980   -2.2400   71.2720 O.2   424  SER424     -0.2866
     74  CB         9.3600   -1.0600   69.3090 C.3   424  SER424      0.2089
     75  OG         8.8620    0.2210   68.9590 O.3   424  SER424     -0.2183
     76  N          7.4460    8.0740   73.4520 N.3   524  SER524     -0.1202
     77  CA         7.3740    6.8670   72.6260 C.3   524  SER524      0.2020
     78  C          8.6900    6.7710   71.8730 C.2   524  SER524      0.2619
     79  O          9.0850    7.6970   71.1660 O.2   524  SER524     -0.2717
     80  CB         6.1940    6.9420   71.6490 C.3   524  SER524      0.2103
     81  OG         5.9700    5.6830   71.0260 O.3   524  SER524     -0.2182
     82  N          9.3590    5.6350   72.0110 N.am  525  THR525     -0.1938
     83  CA        10.6750    5.4750   71.4130 C.3   525  THR525      0.2028
     84  C         10.9350    4.1480   70.7160 C.2   525  THR525      0.2642
     85  O         10.1280    3.2260   70.7680 O.2   525  THR525     -0.2714
     86  CB        11.7390    5.6000   72.4970 C.3   525  THR525      0.1808
     87  OG1       11.7410    4.3960   73.2790 O.3   525  THR525     -0.2208
     88  CG2       11.4330    6.7850   73.4230 C.3   525  THR525      0.0379
     89  N         12.1010    4.0670   70.0830 N.am  526  SER526     -0.1949
     90  CA        12.5370    2.8580   69.4010 C.3   526  SER526      0.1924
     91  C         13.9470    3.0690   68.8910 C.2   526  SER526      0.2314
     92  O         14.3630    4.1950   68.6300 O.2   526  SER526     -0.2863
     93  CB        11.6250    2.5220   68.2180 C.3   526  SER526      0.2116
     94  OG        11.8250    3.4230   67.1480 O.3   526  SER526     -0.2180
     95  N         16.4320    2.2950   65.8740 N.3   528  VAL528     -0.1245
     96  CA        16.4440    1.8430   64.4920 C.3   528  VAL528      0.1561
     97  C         17.8750    2.0400   64.0270 C.2   528  VAL528      0.2260
     98  O         18.2290    3.0740   63.4570 O.2   528  VAL528     -0.2867
     99  CB        15.4770    2.6620   63.6000 C.3   528  VAL528      0.0252
    100  CG1       15.5850    2.1920   62.1570 C.3   528  VAL528      0.0019
    101  CG2       14.0370    2.4930   64.0920 C.3   528  VAL528      0.0019
    102  N          9.6610    9.4820   63.2980 N.3   538  TYR538     -0.1227
    103  CA         8.1980    9.4510   63.3570 C.3   538  TYR538      0.1736
    104  C          7.6920   10.4220   64.4270 C.2   538  TYR538      0.2596
    105  O          8.4540   10.8730   65.2950 O.2   538  TYR538     -0.2718
    106  CB         7.7120    8.0250   63.6580 C.3   538  TYR538      0.0548
    107  CG         8.4600    7.3640   64.7930 C.ar  538  TYR538     -0.0200
    108  CD1        8.3590    7.8480   66.0930 C.ar  538  TYR538     -0.0009
    109  CD2        9.3130    6.2860   64.5560 C.ar  538  TYR538     -0.0009
    110  CE1        9.0910    7.2780   67.1350 C.ar  538  TYR538      0.0417
    111  CE2       10.0500    5.7110   65.5830 C.ar  538  TYR538      0.0417
    112  CZ         9.9340    6.2090   66.8710 C.ar  538  TYR538      0.1957
    113  OH        10.6420    5.6290   67.8970 O.3   538  TYR538     -0.2866
    114  N          6.4040   10.7440   64.3710 N.am  539  GLY539     -0.1957
    115  CA         5.8520   11.6770   65.3330 C.3   539  GLY539      0.1869
    116  C          5.5040   11.0740   66.6780 C.2   539  GLY539      0.2309
    117  O          5.7040    9.8800   66.8980 O.2   539  GLY539     -0.2863
    118  N          2.8640   10.0150   69.8960 N.3   541  VAL541     -0.1245
    119  CA         1.6250    9.2340   69.8420 C.3   541  VAL541      0.1561
    120  C          0.5090    9.8750   70.6560 C.2   541  VAL541      0.2260
    121  O         -0.6400    9.4320   70.6000 O.2   541  VAL541     -0.2867
    122  CB         1.8260    7.7750   70.3260 C.3   541  VAL541      0.0252
    123  CG1        2.7430    7.0380   69.3620 C.3   541  VAL541      0.0019
    124  CG2        2.4000    7.7540   71.7400 C.3   541  VAL541      0.0019
@<TRIPOS>BOND
     1    32    31    2
     2    31    30    1
     3    36    37    1
     4    29    30    1
     5    29    35    1
     6    37    38    1
     7    37    40    1
     8    30    33    1
     9    38    39    2
    10    49    48    2
    11    57    56    2
    12    35    34    1
    13    34    33    1
    14    46    47    1
    15    40    41    1
    16    56    55    1
    17    48    47    1
    18    48    54   am
    19    55    54    1
    20    47    50    1
    21    41    42   ar
    22    41    43   ar
    23   100    99    1
    24    42    44   ar
    25    21    22    1
    26    43    45   ar
    27    28    26   am
    28    44    45   ar
    29    50    51    1
    30    13    14    1
    31    13    10    1
    32   102   103    1
    33   103   106    1
    34   103   104    1
    35    98    97    2
    36    12    11    2
    37    99   101    1
    38    99    96    1
    39    23    22    1
    40    23    24    2
    41   106   107    1
    42    22    25    1
    43    16    14   ar
    44    16    18   ar
    45    11    10    1
    46    52    51   ar
    47    14    15   ar
    48    25    26    1
    49    51    53   ar
    50    26    27    2
    51    97    96    1
    52    18    19   ar
    53    15    17   ar
    54    10     9    1
    55   114   104   am
    56   114   115    1
    57   104   105    2
    58    96    95    1
    59    19    17   ar
    60    19    20    1
    61   109   107   ar
    62   109   111   ar
    63   107   108   ar
    64   115   116    1
    65     9     3   am
    66   111   112   ar
    67   108   110   ar
    68     4     3    2
    69     3     2    1
    70   116   117    2
    71   112   110   ar
    72   112   113    1
    73    94    93    1
    74     6     5    1
    75     6     7    1
    76     5     2    1
    77     2     1    1
    78    93    90    1
    79    92    91    2
    80     8     7    1
    81    91    90    1
    82    75    74    1
    83    74    71    1
    84   123   122    1
    85    90    89    1
    86   119   118    1
    87   119   122    1
    88   119   120    1
    89    89    84   am
    90   122   124    1
    91    69    68    1
    92   121   120    2
    93    84    85    2
    94    84    83    1
    95    71    72    1
    96    71    70    1
    97    81    80    1
    98    67    68   ar
    99    67    65   ar
   100    79    78    2
   101    72    73    2
   102    68    66   ar
   103    83    82    1
   104    83    86    1
   105    80    77    1
   106    78    82   am
   107    78    77    1
   108    65    63   ar
   109    86    87    1
   110    86    88    1
   111    66    64   ar
   112    77    76    1
   113    63    64   ar
   114    63    62    1
   115    61    60    2
   116    62    59    1
   117    60    59    1
   118    59    58    1
