@<TRIPOS>MOLECULE
tmp/2fy4A00.pdb
 221 210 0 0 0
SMALL
GASTEIGER

@<TRIPOS>ATOM
      1  N         20.9420  -11.0110   66.5300 N.3   132  LYS132     -0.1231
      2  CA        22.2240  -10.4490   66.8820 C.3   132  LYS132      0.1693
      3  C         22.0210   -9.4900   68.0630 C.2   132  LYS132      0.2593
      4  O         20.9010   -9.0410   68.3100 O.2   132  LYS132     -0.2718
      5  CB        22.8610   -9.7900   65.6570 C.3   132  LYS132      0.0285
      6  CG        21.9720   -8.8650   64.8780 C.3   132  LYS132      0.0035
      7  CD        22.7030   -8.3770   63.6570 C.3   132  LYS132      0.0206
      8  CE        21.9960   -7.2040   63.0290 C.3   132  LYS132      0.1093
      9  NZ        22.8500   -6.6460   61.9370 N.3   132  LYS132     -0.1314
     10  N         23.0800   -9.2100   68.8170 N.am  133  GLY133     -0.1942
     11  CA        22.9390   -8.3680   69.9980 C.3   133  GLY133      0.2014
     12  C         22.5600   -9.2780   71.1700 C.2   133  GLY133      0.2638
     13  O         23.2870  -10.2440   71.4800 O.2   133  GLY133     -0.2714
     14  N         21.4330   -8.9820   71.8170 N.am  134  GLN134     -0.1977
     15  CA        20.9560   -9.8080   72.9450 C.3   134  GLN134      0.1601
     16  C         20.4610  -11.1730   72.4250 C.2   134  GLN134      0.2287
     17  O         19.5890  -11.1940   71.5530 O.2   134  GLN134     -0.2864
     18  CB        19.7910   -9.1230   73.6860 C.3   134  GLN134      0.0394
     19  CG        20.0610   -7.7340   74.2540 C.3   134  GLN134      0.0908
     20  CD        20.8500   -7.7210   75.5720 C.2   134  GLN134      0.2608
     21  OE1       20.7500   -8.6230   76.4020 O.2   134  GLN134     -0.2717
     22  NE2       21.6190   -6.6750   75.7710 N.am  134  GLN134     -0.0878
     23  N          3.5230    2.2320   58.7260 N.3   310  HIS310     -0.1241
     24  CA         3.9100    1.3260   59.8050 C.3   310  HIS310      0.1621
     25  C          3.2120   -0.0200   59.9830 C.2   310  HIS310      0.2264
     26  O          3.8490   -1.0110   60.3520 O.2   310  HIS310     -0.2867
     27  CB         3.7410    2.0520   61.1070 C.3   310  HIS310      0.0745
     28  CG         4.8260    1.6890   62.1100 C.ar  310  HIS310      0.0817
     29  ND1        5.2150    0.4030   62.4130 N.ar  310  HIS310     -0.2268
     30  CD2        5.6030    2.5070   62.8590 C.ar  310  HIS310      0.1154
     31  CE1        6.1870    0.4400   63.3080 C.ar  310  HIS310      0.1986
     32  NE2        6.4400    1.7040   63.5950 N.ar  310  HIS310     -0.2212
     33  N          7.9570   -3.5410   60.5620 N.3   314  ASP314     -0.1225
     34  CA         8.7100   -2.6250   61.4070 C.3   314  ASP314      0.1805
     35  C         10.0220   -2.1340   60.7930 C.2   314  ASP314      0.2598
     36  O         10.4780   -2.6460   59.7740 O.2   314  ASP314     -0.2718
     37  CB         8.9270   -3.2750   62.7730 C.3   314  ASP314      0.1424
     38  CG         7.6050   -3.6170   63.4580 C.2   314  ASP314      0.3668
     39  OD1        6.7380   -2.7160   63.5460 O.co2 314  ASP314     -0.2456
     40  OD2        7.4550   -4.7710   63.9060 O.co2 314  ASP314     -0.2456
     41  N         10.6080   -1.1280   61.4290 N.am  315  GLY315     -0.1942
     42  CA        11.8300   -0.4820   60.9480 C.3   315  GLY315      0.2014
     43  C         13.0700   -1.3360   60.6460 C.2   315  GLY315      0.2638
     44  O         13.8600   -0.9800   59.7570 O.2   315  GLY315     -0.2714
     45  N         13.2760   -2.4460   61.3400 N.am  316  ILE316     -0.1977
     46  CA        14.4690   -3.2400   61.0720 C.3   316  ILE316      0.1596
     47  C         14.3770   -3.8450   59.6800 C.2   316  ILE316      0.2287
     48  O         15.2990   -3.7170   58.8760 O.2   316  ILE316     -0.2864
     49  CB        14.6560   -4.3750   62.0950 C.3   316  ILE316      0.0276
     50  CG1       14.6360   -3.8100   63.5230 C.3   316  ILE316      0.0022
     51  CG2       15.9440   -5.1180   61.8220 C.3   316  ILE316      0.0022
     52  CD1       15.6350   -2.6930   63.7430 C.3   316  ILE316      0.0001
     53  N         28.9940    3.0900   71.0520 N.3   386  LYS386     -0.1245
     54  CA        28.9920    1.7220   71.5590 C.3   386  LYS386      0.1561
     55  C         30.3430    1.2780   72.1300 C.2   386  LYS386      0.2260
     56  O         30.4000    0.6810   73.2100 O.2   386  LYS386     -0.2867
     57  CB        28.5700    0.7650   70.4420 C.3   386  LYS386      0.0271
     58  CG        27.1950    1.0680   69.8660 C.3   386  LYS386      0.0035
     59  CD        27.0040    0.4270   68.5000 C.3   386  LYS386      0.0206
     60  CE        27.0330   -1.0850   68.5730 C.3   386  LYS386      0.1093
     61  NZ        26.9750   -1.6900   67.2150 N.3   386  LYS386     -0.1314
     62  N         30.6160   -0.4100   75.7640 N.3   390  LYS390     -0.1245
     63  CA        30.9620   -1.8120   75.9660 C.3   390  LYS390      0.1561
     64  C         32.1350   -1.9220   76.9420 C.2   390  LYS390      0.2260
     65  O         32.2460   -2.9040   77.6760 O.2   390  LYS390     -0.2867
     66  CB        31.3360   -2.4720   74.6430 C.3   390  LYS390      0.0271
     67  CG        30.1800   -2.6550   73.6780 C.3   390  LYS390      0.0035
     68  CD        30.6970   -3.2380   72.3780 C.3   390  LYS390      0.0206
     69  CE        29.5790   -3.6080   71.4370 C.3   390  LYS390      0.1093
     70  NZ        30.1350   -4.1110   70.1520 N.3   390  LYS390     -0.1314
     71  N         31.2750   -2.5580   80.3420 N.3   393  LYS393     -0.1231
     72  CA        30.5810   -3.8280   80.5360 C.3   393  LYS393      0.1693
     73  C         29.0720   -3.5840   80.5470 C.2   393  LYS393      0.2592
     74  O         28.3340   -4.1390   81.3440 O.2   393  LYS393     -0.2718
     75  CB        31.0180   -4.4830   81.8520 C.3   393  LYS393      0.0285
     76  CG        32.5020   -4.8240   81.9140 C.3   393  LYS393      0.0035
     77  CD        32.8450   -5.5970   83.1800 C.3   393  LYS393      0.0206
     78  CE        32.5290   -4.7760   84.4240 C.3   393  LYS393      0.1093
     79  NZ        32.7070   -5.5530   85.6850 N.3   393  LYS393     -0.1314
     80  N         28.6450   -2.7110   79.6250 N.am  394  CYS394     -0.1956
     81  CA        27.2540   -2.3410   79.5610 C.3   394  CYS394      0.1843
     82  C         26.6390   -2.4980   78.1600 C.2   394  CYS394      0.2626
     83  O         27.3130   -2.2980   77.1390 O.2   394  CYS394     -0.2714
     84  CB        27.0780   -0.8830   80.0110 C.3   394  CYS394      0.0997
     85  SG        27.3230   -0.6050   81.7940 S.3   394  CYS394     -0.0797
     86  N         25.3780   -2.8590   78.1650 N.am  395  SER395     -0.1936
     87  CA        24.6550   -3.0070   76.9150 C.3   395  SER395      0.2040
     88  C         24.4650   -1.6040   76.3100 C.2   395  SER395      0.2485
     89  O         23.9350   -0.7450   77.0220 O.2   395  SER395     -0.2729
     90  CB        23.3160   -3.7280   77.1320 C.3   395  SER395      0.2129
     91  OG        22.2920   -3.1360   76.3520 O.3   395  SER395     -0.2179
     92  N         24.8670   -1.2750   75.0670 N.am  396  PRO396     -0.2715
     93  CA        24.6730    0.0990   74.6070 C.3   396  PRO396      0.1536
     94  C         23.2050    0.5200   74.7740 C.2   396  PRO396      0.2598
     95  O         22.8780    1.5220   75.4220 O.2   396  PRO396     -0.2715
     96  CB        25.2120    0.0620   73.1750 C.3   396  PRO396      0.0310
     97  CG        26.0690   -1.1580   73.1300 C.3   396  PRO396      0.0237
     98  CD        25.5050   -2.1630   74.0940 C.3   396  PRO396      0.0939
     99  N         22.3220   -0.3080   74.1550 N.am  397  ASP397     -0.1972
    100  CA        20.9030   -0.0280   74.1780 C.3   397  ASP397      0.1709
    101  C         20.4310    0.2870   75.5760 C.2   397  ASP397      0.2293
    102  O         19.7650    1.3010   75.7990 O.2   397  ASP397     -0.2864
    103  CB        20.0990   -1.2120   73.6180 C.3   397  ASP397      0.1436
    104  CG        18.6600   -0.8010   73.3670 C.2   397  ASP397      0.3671
    105  OD1       18.4220   -0.0810   72.3760 O.co2 397  ASP397     -0.2456
    106  OD2       17.7730   -1.1770   74.1670 O.co2 397  ASP397     -0.2456
    107  N          9.6470    1.1580   74.4880 N.3   420  GLU420     -0.1231
    108  CA        10.7900    0.8630   73.6400 C.3   420  GLU420      0.1699
    109  C         10.4550   -0.3960   72.8610 C.2   420  GLU420      0.2593
    110  O         10.1420   -1.4400   73.4430 O.2   420  GLU420     -0.2718
    111  CB        12.0990    0.6240   74.4090 C.3   420  GLU420      0.0402
    112  CG        13.2020    0.1890   73.4310 C.3   420  GLU420      0.1161
    113  CD        14.5210   -0.2020   74.0880 C.2   420  GLU420      0.3649
    114  OE1       14.5820   -0.2580   75.3260 O.co2 420  GLU420     -0.2457
    115  OE2       15.4970   -0.4620   73.3470 O.co2 420  GLU420     -0.2457
    116  N         10.5200   -0.2810   71.5410 N.am  421  SER421     -0.1938
    117  CA        10.2340   -1.3930   70.6550 C.3   421  SER421      0.2055
    118  C         11.2130   -2.5200   70.9110 C.2   421  SER421      0.2643
    119  O         12.4270   -2.3240   70.8720 O.2   421  SER421     -0.2714
    120  CB        10.3550   -0.9540   69.1930 C.3   421  SER421      0.2130
    121  OG         9.6000    0.2180   68.9550 O.3   421  SER421     -0.2179
    122  N         10.6780   -3.6990   71.1870 N.am  422  ALA422     -0.1963
    123  CA        11.5090   -4.8660   71.4160 C.3   422  ALA422      0.1728
    124  C         11.0510   -5.8880   70.3880 C.2   422  ALA422      0.2616
    125  O          9.9050   -6.3260   70.4080 O.2   422  ALA422     -0.2715
    126  CB        11.3070   -5.3910   72.8260 C.3   422  ALA422      0.0334
    127  N         11.9380   -6.2550   69.4750 N.am  423  SER423     -0.1950
    128  CA        11.5670   -7.2120   68.4430 C.3   423  SER423      0.1924
    129  C         11.3490   -8.6130   68.9770 C.2   423  SER423      0.2314
    130  O         12.1650   -9.1200   69.7430 O.2   423  SER423     -0.2863
    131  CB        12.6300   -7.2680   67.3500 C.3   423  SER423      0.2116
    132  OG        12.2970   -8.2620   66.3890 O.3   423  SER423     -0.2180
    133  N         11.6720  -13.6090   66.9090 N.3   426  ARG426     -0.1245
    134  CA        12.1670  -14.9510   67.1890 C.3   426  ARG426      0.1563
    135  C         10.9930  -15.9140   67.0900 C.2   426  ARG426      0.2260
    136  O         11.1750  -17.1270   67.0020 O.2   426  ARG426     -0.2867
    137  CB        12.7530  -15.0280   68.6020 C.3   426  ARG426      0.0307
    138  CG        14.0620  -14.2840   68.7690 C.3   426  ARG426      0.0489
    139  CD        14.5920  -14.3630   70.1980 C.3   426  ARG426      0.2205
    140  NE        15.9560  -13.8380   70.3070 N.pl3 426  ARG426     -0.0865
    141  CZ        16.3090  -12.5720   70.0800 C.cat 426  ARG426      0.5346
    142  NH1       15.4090  -11.6620   69.7280 N.pl3 426  ARG426      0.1354
    143  NH2       17.5740  -12.2050   70.2050 N.pl3 426  ARG426      0.1354
    144  N          6.5600   -6.8550   67.6110 N.3   432  VAL432     -0.1245
    145  CA         7.3040   -6.3250   68.7500 C.3   432  VAL432      0.1561
    146  C          6.4590   -6.3220   70.0140 C.2   432  VAL432      0.2260
    147  O          5.2280   -6.3940   69.9500 O.2   432  VAL432     -0.2867
    148  CB         7.7460   -4.8740   68.5400 C.3   432  VAL432      0.0252
    149  CG1        8.4900   -4.7270   67.2150 C.3   432  VAL432      0.0019
    150  CG2        6.5350   -3.9430   68.5900 C.3   432  VAL432      0.0019
    151  N          9.3340   -2.7680   76.0310 N.3   435  ILE435     -0.1245
    152  CA        10.3350   -2.7260   77.0850 C.3   435  ILE435      0.1561
    153  C         10.0090   -1.4840   77.8670 C.2   435  ILE435      0.2260
    154  O         10.1760   -0.3800   77.3410 O.2   435  ILE435     -0.2867
    155  CB        11.7690   -2.6540   76.5130 C.3   435  ILE435      0.0252
    156  CG1       12.1550   -3.9540   75.8080 C.3   435  ILE435      0.0019
    157  CG2       12.7560   -2.3410   77.6330 C.3   435  ILE435      0.0019
    158  CD1       13.4690   -3.8630   75.0550 C.3   435  ILE435      0.0001
    159  N         18.5300   -4.0650   81.0870 N.3   473  THR473     -0.1218
    160  CA        18.9160   -5.2630   80.3550 C.3   473  THR473      0.1862
    161  C         18.0260   -6.4490   80.7020 C.2   473  THR473      0.2287
    162  O         17.6230   -7.2090   79.8200 O.2   473  THR473     -0.2866
    163  CB        20.3920   -5.6320   80.6480 C.3   473  THR473      0.1770
    164  OG1       21.2500   -4.6070   80.1240 O.3   473  THR473     -0.2211
    165  CG2       20.7500   -6.9650   80.0110 C.3   473  THR473      0.0375
    166  N         14.8360   -6.0810   79.0140 N.3   476  THR476     -0.1218
    167  CA        15.0560   -6.2590   77.5890 C.3   476  THR476      0.1862
    168  C         15.0290   -7.7620   77.2880 C.2   476  THR476      0.2287
    169  O         14.2920   -8.2170   76.4090 O.2   476  THR476     -0.2866
    170  CB        16.4120   -5.6200   77.1800 C.3   476  THR476      0.1770
    171  OG1       16.3520   -4.2050   77.4220 O.3   476  THR476     -0.2211
    172  CG2       16.7190   -5.8630   75.7160 C.3   476  THR476      0.0375
    173  N         12.1940   -9.5220   74.7340 N.3   480  ILE480     -0.1245
    174  CA        12.5360  -10.2030   73.4890 C.3   480  ILE480      0.1561
    175  C         12.3320  -11.7100   73.5100 C.2   480  ILE480      0.2260
    176  O         12.3930  -12.3680   72.4620 O.2   480  ILE480     -0.2867
    177  CB        13.9810   -9.8820   73.0500 C.3   480  ILE480      0.0252
    178  CG1       14.9840  -10.4050   74.0810 C.3   480  ILE480      0.0019
    179  CG2       14.1340   -8.3800   72.8670 C.3   480  ILE480      0.0019
    180  CD1       16.4280  -10.0900   73.7220 C.3   480  ILE480      0.0001
    181  N         12.8270    3.8050   70.2990 N.3   523  SER523     -0.1202
    182  CA        13.2430    2.6280   69.5520 C.3   523  SER523      0.2020
    183  C         14.6400    2.8050   68.9820 C.2   523  SER523      0.2619
    184  O         15.0710    3.9190   68.6770 O.2   523  SER523     -0.2717
    185  CB        12.2820    2.3510   68.3920 C.3   523  SER523      0.2103
    186  OG        12.4940    3.2750   67.3380 O.3   523  SER523     -0.2182
    187  N         15.3440    1.6910   68.8440 N.am  524  GLN524     -0.1965
    188  CA        16.6740    1.7000   68.2580 C.3   524  GLN524      0.1733
    189  C         16.5210    1.2120   66.8180 C.2   524  GLN524      0.2616
    190  O         15.9400    0.1570   66.5740 O.2   524  GLN524     -0.2715
    191  CB        17.6160    0.7510   69.0050 C.3   524  GLN524      0.0408
    192  CG        19.0350    0.7650   68.4440 C.3   524  GLN524      0.0908
    193  CD        19.8480   -0.4300   68.8790 C.2   524  GLN524      0.2608
    194  OE1       20.3590   -1.1820   68.0510 O.2   524  GLN524     -0.2717
    195  NE2       19.9750   -0.6140   70.1900 N.am  524  GLN524     -0.0878
    196  N         16.9980    2.0040   65.8670 N.am  525  VAL525     -0.1964
    197  CA        16.9510    1.6200   64.4580 C.3   525  VAL525      0.1712
    198  C         18.3710    1.8330   63.9700 C.2   525  VAL525      0.2458
    199  O         18.7160    2.8990   63.4580 O.2   525  VAL525     -0.2730
    200  CB        15.9770    2.4920   63.6240 C.3   525  VAL525      0.0289
    201  CG1       16.0530    2.0880   62.1540 C.3   525  VAL525      0.0023
    202  CG2       14.5450    2.3120   64.1250 C.3   525  VAL525      0.0023
    203  N         19.2280    0.8180   64.1560 N.am  526  PRO526     -0.2727
    204  CA        20.6330    0.8600   63.7490 C.3   526  PRO526      0.1402
    205  C         20.7670    0.7140   62.2460 C.2   526  PRO526      0.2269
    206  O         19.9510    0.0460   61.6080 O.2   526  PRO526     -0.2865
    207  CB        21.2320   -0.3240   64.4900 C.3   526  PRO526      0.0296
    208  CG        20.1220   -1.3280   64.3960 C.3   526  PRO526      0.0237
    209  CD        18.8890   -0.4980   64.7280 C.3   526  PRO526      0.0939
    210  N         10.3700    9.6500   63.6240 N.3   535  TYR535     -0.1241
    211  CA         8.9120    9.6350   63.7260 C.3   535  TYR535      0.1605
    212  C          8.4450   10.5650   64.8330 C.2   535  TYR535      0.2264
    213  O          9.2360   10.9680   65.6880 O.2   535  TYR535     -0.2867
    214  CB         8.4200    8.2080   63.9980 C.3   535  TYR535      0.0534
    215  CG         9.1630    7.5070   65.1140 C.ar  535  TYR535     -0.0201
    216  CD1        8.8910    7.7910   66.4550 C.ar  535  TYR535     -0.0009
    217  CD2       10.1550    6.5650   64.8280 C.ar  535  TYR535     -0.0009
    218  CE1        9.5870    7.1510   67.4800 C.ar  535  TYR535      0.0417
    219  CE2       10.8520    5.9260   65.8390 C.ar  535  TYR535      0.0417
    220  CZ        10.5650    6.2190   67.1620 C.ar  535  TYR535      0.1957
    221  OH        11.2500    5.5690   68.1610 O.3   535  TYR535     -0.2866
@<TRIPOS>BOND
     1    23    24    1
     2    48    47    2
     3    47    46    1
     4    44    43    2
     5    36    35    2
     6    24    25    1
     7    24    27    1
     8    25    26    2
     9    33    34    1
    10    43    42    1
    11    43    45   am
    12    35    34    1
    13    35    41   am
    14    42    41    1
    15    46    45    1
    16    46    49    1
    17    27    28    1
    18    34    37    1
    19   206   205    2
    20    51    49    1
    21     9     8    1
    22    49    50    1
    23    28    29   ar
    24    28    30   ar
    25   201   200    1
    26   205   204    1
    27    29    31   ar
    28    37    38    1
    29    30    32   ar
    30     8     7    1
    31    31    32   ar
    32   199   198    2
    33    38    39   ar
    34    38    40   ar
    35    50    52    1
    36   200   202    1
    37   200   197    1
    38   210   211    1
    39     7     6    1
    40   211   214    1
    41   211   212    1
    42   204   203    1
    43   204   207    1
    44   198   203   am
    45   198   197    1
    46   214   215    1
    47   203   209    1
    48   208   207    1
    49   208   209    1
    50   197   196    1
    51   217   215   ar
    52   217   219   ar
    53   212   213    2
    54     6     5    1
    55   215   216   ar
    56     5     2    1
    57   219   220   ar
    58   196   189   am
    59   132   131    1
    60   216   218   ar
    61     1     2    1
    62   190   189    2
    63   189   188    1
    64     2     3    1
    65   133   134    1
    66   136   135    2
    67   135   134    1
    68   220   218   ar
    69   220   221    1
    70   134   137    1
    71    61    60    1
    72   149   148    1
    73   186   185    1
    74   131   128    1
    75   144   145    1
    76   194   193    2
    77     3     4    2
    78     3    10   am
    79   188   187    1
    80   188   191    1
    81   185   182    1
    82   128   129    1
    83   128   127    1
    84   192   193    1
    85   192   191    1
    86    59    60    1
    87    59    58    1
    88   148   150    1
    89   148   145    1
    90   137   138    1
    91   184   183    2
    92   145   146    1
    93   138   139    1
    94    10    11    1
    95   187   183   am
    96   193   195   am
    97   121   120    1
    98   129   130    2
    99   183   182    1
   100   120   117    1
   101   127   124   am
   102   182   181    1
   103   142   141    1
   104    58    57    1
   105   147   146    2
   106    11    12    1
   107   141   143    1
   108   141   140    2
   109    70    69    1
   110   139   140    1
   111   124   125    2
   112   124   123    1
   113    57    54    1
   114   117   118    1
   115   117   116    1
   116   119   118    2
   117   118   122   am
   118    53    54    1
   119    12    13    2
   120    12    14   am
   121   122   123    1
   122   123   126    1
   123    69    68    1
   124   116   109   am
   125    17    16    2
   126    54    55    1
   127    14    15    1
   128    55    56    2
   129   105   104   ar
   130    68    67    1
   131    16    15    1
   132   176   175    2
   133   109   110    2
   134   109   108    1
   135   179   177    1
   136    15    18    1
   137   177   174    1
   138   177   178    1
   139    97    96    1
   140    97    98    1
   141    96    93    1
   142   115   113   ar
   143   104   103    1
   144   104   106   ar
   145   112   113    1
   146   112   111    1
   147   174   175    1
   148   174   173    1
   149   103   100    1
   150   108   111    1
   151   108   107    1
   152    67    66    1
   153    18    19    1
   154   180   178    1
   155   113   114   ar
   156    98    92    1
   157    99   100    1
   158    99    94   am
   159   100   101    1
   160    19    20    1
   161    93    94    1
   162    93    92    1
   163    66    63    1
   164    94    95    2
   165   158   156    1
   166    92    88   am
   167    20    22   am
   168    20    21    2
   169   101   102    2
   170   172   170    1
   171    62    63    1
   172   156   155    1
   173    63    64    1
   174   151   152    1
   175    88    87    1
   176    88    89    2
   177    91    90    1
   178   169   168    2
   179   155   152    1
   180   155   157    1
   181    87    90    1
   182    87    86    1
   183    64    65    2
   184   152   153    1
   185    83    82    2
   186   170   171    1
   187   170   167    1
   188   168   167    1
   189   154   153    2
   190   167   166    1
   191    82    86   am
   192    82    81    1
   193    81    80    1
   194    81    84    1
   195    80    73   am
   196   162   161    2
   197   165   163    1
   198    84    85    1
   199   164   163    1
   200    71    72    1
   201   160   163    1
   202   160   161    1
   203   160   159    1
   204    72    73    1
   205    72    75    1
   206    73    74    2
   207    75    76    1
   208    76    77    1
   209    77    78    1
   210    78    79    1
