@<TRIPOS>MOLECULE
tmp/2fy7A01.pdb
 100 94 0 0 0
SMALL
GASTEIGER

@<TRIPOS>ATOM
      1  N         -3.2720   10.8440   -2.0010 N.3    15  LEU15      -0.1245
      2  CA        -2.4740   10.7070   -3.2360 C.3    15  LEU15       0.1561
      3  C         -1.2010    9.8870   -3.0780 C.2    15  LEU15       0.2260
      4  O         -0.5350    9.5810   -4.0660 O.2    15  LEU15      -0.2867
      5  CB        -2.0630   12.1070   -3.7290 C.3    15  LEU15       0.0270
      6  CG        -3.2110   13.1120   -3.8850 C.3    15  LEU15       0.0019
      7  CD1       -2.6280   14.5330   -4.2000 C.3    15  LEU15       0.0001
      8  CD2       -4.1670   12.6340   -4.9850 C.3    15  LEU15       0.0001
      9  N          7.3080   18.3570  -16.2500 N.3    36  GLN36      -0.1231
     10  CA         6.5440   17.2820  -15.6290 C.3    36  GLN36       0.1698
     11  C          5.9190   17.7070  -14.2810 C.2    36  GLN36       0.2592
     12  O          5.0920   16.9970  -13.7340 O.2    36  GLN36      -0.2718
     13  CB         7.4340   16.0730  -15.4030 C.3    36  GLN36       0.0381
     14  CG         8.0310   15.5410  -16.7010 C.3    36  GLN36       0.0905
     15  CD         8.8970   14.3230  -16.4720 C.2    36  GLN36       0.2608
     16  OE1        9.5090   14.1740  -15.4120 O.2    36  GLN36      -0.2717
     17  NE2        8.9550   13.4410  -17.4680 N.am   36  GLN36      -0.0878
     18  N          6.3100   18.8690  -13.7790 N.am   37  ASN37      -0.1974
     19  CA         5.7800   19.3810  -12.5030 C.3    37  ASN37       0.1688
     20  C          5.3420   20.8030  -12.7750 C.2    37  ASN37       0.2292
     21  O          5.8030   21.7370  -12.1290 O.2    37  ASN37      -0.2864
     22  CB         6.8910   19.3490  -11.4440 C.3    37  ASN37       0.1181
     23  CG         7.2300   17.9510  -11.0160 C.2    37  ASN37       0.2629
     24  OD1        6.5250   17.3550  -10.2180 O.2    37  ASN37      -0.2716
     25  ND2        8.3150   17.4040  -11.5630 N.am   37  ASN37      -0.0877
     26  N          2.8830   22.5370  -11.9400 N.3    39  ASN39      -0.1240
     27  CA         2.2050   23.2850  -10.9010 C.3    39  ASN39       0.1653
     28  C          3.1780   23.9010   -9.9120 C.2    39  ASN39       0.2266
     29  O          2.7660   24.6750   -9.0730 O.2    39  ASN39      -0.2867
     30  CB         1.1830   22.4110  -10.1450 C.3    39  ASN39       0.1155
     31  CG         0.0300   21.9720  -11.0460 C.2    39  ASN39       0.2627
     32  OD1       -0.3690   22.7180  -11.9540 O.2    39  ASN39      -0.2716
     33  ND2       -0.5150   20.7860  -10.7950 N.am   39  ASN39      -0.0877
     34  N          5.0000   25.6340   -4.2070 N.3    46  TYR46      -0.1241
     35  CA         3.7860   24.9010   -4.5290 C.3    46  TYR46       0.1605
     36  C          2.8340   24.8310   -3.3450 C.2    46  TYR46       0.2264
     37  O          3.2650   24.8120   -2.2010 O.2    46  TYR46      -0.2867
     38  CB         4.1280   23.4650   -4.9260 C.3    46  TYR46       0.0534
     39  CG         2.9160   22.5680   -5.0800 C.ar   46  TYR46      -0.0201
     40  CD1        2.2630   22.4760   -6.3020 C.ar   46  TYR46      -0.0009
     41  CD2        2.3640   21.8810   -3.9860 C.ar   46  TYR46      -0.0009
     42  CE1        1.0970   21.7430   -6.4490 C.ar   46  TYR46       0.0417
     43  CE2        1.1740   21.1310   -4.1260 C.ar   46  TYR46       0.0417
     44  CZ         0.5410   21.0720   -5.3630 C.ar   46  TYR46       0.1957
     45  OH        -0.6230   20.3490   -5.5440 O.3    46  TYR46      -0.2866
     46  N         -4.2980   23.1770   -4.9200 N.3    49  ARG49      -0.1231
     47  CA        -5.2980   24.0630   -5.4740 C.3    49  ARG49       0.1694
     48  C         -6.6530   23.8920   -4.8150 C.2    49  ARG49       0.2592
     49  O         -7.3800   24.8880   -4.6510 O.2    49  ARG49      -0.2718
     50  CB        -5.4590   23.7840   -6.9900 C.3    49  ARG49       0.0321
     51  CG        -5.8440   25.0090   -7.7600 C.3    49  ARG49       0.0489
     52  CD        -4.6300   25.9830   -7.8730 C.3    49  ARG49       0.2205
     53  NE        -3.7470   25.9820   -6.6940 N.pl3  49  ARG49      -0.0865
     54  CZ        -3.0250   27.0310   -6.3050 C.cat  49  ARG49       0.5346
     55  NH1       -3.1170   28.1450   -7.0190 N.pl3  49  ARG49       0.1354
     56  NH2       -2.2070   26.9700   -5.2240 N.pl3  49  ARG49       0.1354
     57  N         -6.9780   22.6600   -4.4110 N.am   50  ASP50      -0.1974
     58  CA        -8.3100   22.3490   -3.8970 C.3    50  ASP50       0.1709
     59  C         -8.5190   22.2930   -2.3840 C.2    50  ASP50       0.2293
     60  O         -9.6420   22.1400   -1.9180 O.2    50  ASP50      -0.2864
     61  CB        -8.8130   21.0390   -4.5030 C.3    50  ASP50       0.1436
     62  CG        -8.8940   21.0780   -6.0290 C.2    50  ASP50       0.3671
     63  OD1       -9.2010   22.1470   -6.6020 O.co2  50  ASP50      -0.2456
     64  OD2       -8.6560   20.0150   -6.6420 O.co2  50  ASP50      -0.2456
     65  N          7.7990   15.6420   -6.8850 N.3    79  PRO79      -0.2116
     66  CA         6.5590   14.8730   -6.9870 C.3    79  PRO79       0.1372
     67  C          6.0530   14.4340   -5.6160 C.2    79  PRO79       0.2244
     68  O          4.8600   14.4650   -5.3820 O.2    79  PRO79      -0.2868
     69  CB         6.9500   13.6840   -7.8600 C.3    79  PRO79       0.0268
     70  CG         8.0250   14.2930   -8.7840 C.3    79  PRO79       0.0207
     71  CD         8.8400   15.1390   -7.8080 C.3    79  PRO79       0.0892
     72  N          4.4070   17.3850   -3.5970 N.3    82  GLN82      -0.1231
     73  CA         3.0800   17.7120   -4.1000 C.3    82  GLN82       0.1698
     74  C          2.0900   16.6170   -3.6870 C.2    82  GLN82       0.2592
     75  O          0.9610   16.9250   -3.3390 O.2    82  GLN82      -0.2718
     76  CB         3.0960   17.8510   -5.6310 C.3    82  GLN82       0.0381
     77  CG         3.8600   19.0710   -6.1140 C.3    82  GLN82       0.0905
     78  CD         4.1300   19.0000   -7.5930 C.2    82  GLN82       0.2608
     79  OE1        3.2890   19.3790   -8.3940 O.2    82  GLN82      -0.2717
     80  NE2        5.2760   18.4750   -7.9550 N.am   82  GLN82      -0.0878
     81  N          2.5050   15.3440   -3.6920 N.am   83  ARG83      -0.1980
     82  CA         1.5750   14.2860   -3.2770 C.3    83  ARG83       0.1597
     83  C          1.2500   14.4000   -1.8150 C.2    83  ARG83       0.2287
     84  O          0.1680   14.0000   -1.4100 O.2    83  ARG83      -0.2864
     85  CB         2.1030   12.8850   -3.5690 C.3    83  ARG83       0.0334
     86  CG         2.0750   12.5900   -5.1010 C.3    83  ARG83       0.0492
     87  CD         2.1750   11.0910   -5.3770 C.3    83  ARG83       0.2205
     88  NE         3.3570   10.4420   -4.7990 N.pl3  83  ARG83      -0.0865
     89  CZ         4.5430   10.3780   -5.3860 C.cat  83  ARG83       0.5346
     90  NH1        5.5580    9.7430   -4.7740 N.pl3  83  ARG83       0.1354
     91  NH2        4.7270   10.9530   -6.5880 N.pl3  83  ARG83       0.1354
     92  N          0.6580   17.1170   -0.4010 N.3    85  GLN85      -0.1245
     93  CA        -0.2380   18.2870   -0.2680 C.3    85  GLN85       0.1566
     94  C          0.3080   19.4140    0.6360 C.2    85  GLN85       0.2260
     95  O         -0.4440   20.0770    1.3310 O.2    85  GLN85      -0.2867
     96  CB        -1.5930   17.7990    0.2610 C.3    85  GLN85       0.0367
     97  CG        -2.2560   16.7700   -0.6480 C.3    85  GLN85       0.0905
     98  CD        -3.6680   16.4140   -0.2010 C.2    85  GLN85       0.2608
     99  OE1       -4.6490   16.4190   -1.0190 O.2    85  GLN85      -0.2717
    100  NE2       -3.7950   16.0770    1.0420 N.am   85  GLN85      -0.0878
@<TRIPOS>BOND
     1    17    15   am
     2    14    15    1
     3    14    13    1
     4    15    16    2
     5     9    10    1
     6    10    13    1
     7    10    11    1
     8    11    18   am
     9    11    12    2
    10    18    19    1
    11    20    19    1
    12    20    21    2
    13    19    22    1
    14    32    31    2
    15    26    27    1
    16    25    23   am
    17    22    23    1
    18    31    33   am
    19    31    30    1
    20    23    24    2
    21    27    30    1
    22    27    28    1
    23    28    29    2
    24    70    69    1
    25    70    71    1
    26    79    78    2
    27    80    78   am
    28    52    51    1
    29    52    53    1
    30    69    66    1
    31    71    65    1
    32    51    50    1
    33    78    77    1
    34    55    54    1
    35    50    47    1
    36    66    65    1
    37    66    67    1
    38    53    54    2
    39    64    62   ar
    40    63    62   ar
    41    91    89    1
    42    42    40   ar
    43    42    44   ar
    44    54    56    1
    45    40    39   ar
    46    77    76    1
    47    62    61    1
    48    76    73    1
    49    67    68    2
    50    45    44    1
    51    47    46    1
    52    47    48    1
    53    89    88    2
    54    89    90    1
    55    87    86    1
    56    87    88    1
    57    44    43   ar
    58    86    85    1
    59    39    38    1
    60    39    41   ar
    61     8     6    1
    62    38    35    1
    63    48    49    2
    64    48    57   am
    65    35    34    1
    66    35    36    1
    67    61    58    1
    68    57    58    1
    69     7     6    1
    70    43    41   ar
    71    73    74    1
    72    73    72    1
    73     4     3    2
    74    58    59    1
    75     6     5    1
    76     5     2    1
    77    81    74   am
    78    81    82    1
    79    74    75    2
    80    85    82    1
    81    36    37    2
    82    82    83    1
    83     2     3    1
    84     2     1    1
    85    59    60    2
    86    83    84    2
    87    99    98    2
    88    97    98    1
    89    97    96    1
    90    92    93    1
    91    93    96    1
    92    93    94    1
    93    98   100   am
    94    94    95    2
