@<TRIPOS>MOLECULE
tmp/2fydD01.pdb
 138 131 0 0 0
SMALL
GASTEIGER

@<TRIPOS>ATOM
      1  N         27.0320   40.0860   24.6470 N.3    98  ARG98      -0.1245
      2  CA        28.4930   40.0070   24.6050 C.3    98  ARG98       0.1563
      3  C         29.2340   41.2890   24.2140 C.2    98  ARG98       0.2260
      4  O         30.1240   41.7560   24.9460 O.2    98  ARG98      -0.2867
      5  CB        28.9240   38.8790   23.6530 C.3    98  ARG98       0.0307
      6  CG        30.4630   38.7490   23.4680 C.3    98  ARG98       0.0489
      7  CD        30.8110   37.5160   22.6330 C.3    98  ARG98       0.2205
      8  NE        32.2550   37.2980   22.4520 N.pl3  98  ARG98      -0.0865
      9  CZ        33.0170   37.9230   21.5610 C.cat  98  ARG98       0.5346
     10  NH1       32.4980   38.8180   20.7470 N.pl3  98  ARG98       0.1354
     11  NH2       34.3140   37.6420   21.4730 N.pl3  98  ARG98       0.1354
     12  N         36.7610   35.2720   25.2270 N.3   122  ASP122     -0.1239
     13  CA        35.6330   34.5300   25.8030 C.3   122  ASP122      0.1674
     14  C         36.2500   33.7940   26.9740 C.2   122  ASP122      0.2266
     15  O         37.4450   33.5110   26.9710 O.2   122  ASP122     -0.2867
     16  CB        35.0300   33.5200   24.8200 C.3   122  ASP122      0.1410
     17  CG        34.2530   34.1870   23.6990 C.2   122  ASP122      0.3668
     18  OD1       33.9100   35.3850   23.7750 O.co2 122  ASP122     -0.2456
     19  OD2       33.9710   33.4950   22.7220 O.co2 122  ASP122     -0.2456
     20  N         35.8780   30.7840   27.9870 N.3   124  ASP124     -0.1225
     21  CA        36.1520   29.3650   27.8170 C.3   124  ASP124      0.1805
     22  C         37.1810   29.0070   26.7440 C.2   124  ASP124      0.2597
     23  O         37.2000   27.8730   26.2880 O.2   124  ASP124     -0.2718
     24  CB        34.8310   28.6290   27.5130 C.3   124  ASP124      0.1424
     25  CG        34.1200   29.1850   26.2630 C.2   124  ASP124      0.3668
     26  OD1       34.7930   29.8770   25.4670 O.co2 124  ASP124     -0.2456
     27  OD2       32.8950   28.9430   26.0730 O.co2 124  ASP124     -0.2456
     28  N         38.0370   29.9510   26.3380 N.am  125  LEU125     -0.1979
     29  CA        39.0210   29.6500   25.3020 C.3   125  LEU125      0.1596
     30  C         40.4290   29.7370   25.8550 C.2   125  LEU125      0.2287
     31  O         40.8080   30.7640   26.4430 O.2   125  LEU125     -0.2864
     32  CB        38.8710   30.6090   24.1080 C.3   125  LEU125      0.0297
     33  CG        37.6380   30.4170   23.2280 C.3   125  LEU125      0.0022
     34  CD1       37.4250   31.6620   22.3530 C.3   125  LEU125      0.0001
     35  CD2       37.8300   29.1370   22.3920 C.3   125  LEU125      0.0001
     36  N         40.7400   26.5760   16.5070 N.3   147  MET147     -0.1245
     37  CA        40.0140   25.9800   17.6240 C.3   147  MET147      0.1570
     38  C         39.7400   24.4840   17.4100 C.2   147  MET147      0.2261
     39  O         39.4310   24.0570   16.2820 O.2   147  MET147     -0.2867
     40  CB        38.6950   26.7480   17.8100 C.3   147  MET147      0.0387
     41  CG        38.8940   28.2300   18.2270 C.3   147  MET147      0.0595
     42  SD        37.3500   29.2060   18.1790 S.3   147  MET147     -0.1393
     43  CE        36.3200   28.0970   19.0670 C.3   147  MET147      0.0692
     44  N         37.2360   22.8480   18.3030 N.3   149  LYS149     -0.1231
     45  CA        35.8410   22.7440   17.8900 C.3   149  LYS149      0.1693
     46  C         35.7000   22.7990   16.3570 C.2   149  LYS149      0.2592
     47  O         34.7730   22.2180   15.7980 O.2   149  LYS149     -0.2718
     48  CB        35.0170   23.8900   18.4800 C.3   149  LYS149      0.0285
     49  CG        33.5730   23.8680   18.0260 C.3   149  LYS149      0.0035
     50  CD        32.7590   25.0320   18.5950 C.3   149  LYS149      0.0206
     51  CE        31.3600   25.0110   18.0000 C.3   149  LYS149      0.1093
     52  NZ        30.4910   26.0840   18.5370 N.3   149  LYS149     -0.1314
     53  N         36.6020   23.5100   15.6810 N.am  150  PHE150     -0.1976
     54  CA        36.5340   23.6050   14.2160 C.3   150  PHE150      0.1639
     55  C         37.6580   22.7980   13.5430 C.2   150  PHE150      0.2290
     56  O         38.1410   23.1420   12.4590 O.2   150  PHE150     -0.2864
     57  CB        36.5980   25.0750   13.7650 C.3   150  PHE150      0.0560
     58  CG        35.5060   25.9550   14.3490 C.ar  150  PHE150     -0.0200
     59  CD1       35.8330   27.1360   15.0160 C.ar  150  PHE150     -0.0042
     60  CD2       34.1660   25.6030   14.2470 C.ar  150  PHE150     -0.0042
     61  CE1       34.8510   27.9490   15.5710 C.ar  150  PHE150     -0.0003
     62  CE2       33.1670   26.4230   14.8080 C.ar  150  PHE150     -0.0003
     63  CZ        33.5190   27.5980   15.4710 C.ar  150  PHE150     -0.0000
     64  N         36.0470   35.3060    9.8710 N.3   159  TYR159     -0.1241
     65  CA        35.7530   35.0850   11.2800 C.3   159  TYR159      0.1605
     66  C         36.6140   35.9260   12.2580 C.2   159  TYR159      0.2264
     67  O         37.8400   35.8840   12.2090 O.2   159  TYR159     -0.2867
     68  CB        35.8940   33.5770   11.5440 C.3   159  TYR159      0.0534
     69  CG        35.6600   33.1610   12.9610 C.ar  159  TYR159     -0.0201
     70  CD1       34.4280   33.3950   13.5960 C.ar  159  TYR159     -0.0009
     71  CD2       36.6660   32.5270   13.6740 C.ar  159  TYR159     -0.0009
     72  CE1       34.2220   33.0030   14.9020 C.ar  159  TYR159      0.0417
     73  CE2       36.4670   32.1330   14.9650 C.ar  159  TYR159      0.0417
     74  CZ        35.2620   32.3650   15.5770 C.ar  159  TYR159      0.1957
     75  OH        35.1240   31.9390   16.8730 O.3   159  TYR159     -0.2866
     76  N         35.6570   36.0220   15.7670 N.3   161  GLY161     -0.1210
     77  CA        35.1580   35.7010   17.0960 C.3   161  GLY161      0.1956
     78  C         36.1340   34.9730   18.0030 C.2   161  GLY161      0.2612
     79  O         37.2340   34.6090   17.5620 O.2   161  GLY161     -0.2717
     80  N         35.7400   34.7820   19.2690 N.am  162  GLY162     -0.1956
     81  CA        36.5480   34.0440   20.2330 C.3   162  GLY162      0.1869
     82  C         37.5280   34.8770   21.0220 C.2   162  GLY162      0.2309
     83  O         37.2370   35.3160   22.1280 O.2   162  GLY162     -0.2863
     84  N         21.4440   38.3380   22.5450 N.3   183  GLY183     -0.1210
     85  CA        21.3170   36.9360   22.1910 C.3   183  GLY183      0.1956
     86  C         22.5500   36.5630   21.3650 C.2   183  GLY183      0.2612
     87  O         23.3310   37.4430   20.9610 O.2   183  GLY183     -0.2717
     88  N         22.7000   35.2760   21.0580 N.am  184  TRP184     -0.1962
     89  CA        23.8850   34.7820   20.3420 C.3   184  TRP184      0.1771
     90  C         24.0210   35.0470   18.8260 C.2   184  TRP184      0.2620
     91  O         23.0320   35.0200   18.0950 O.2   184  TRP184     -0.2715
     92  CB        23.9930   33.2720   20.5840 C.3   184  TRP184      0.0590
     93  CG        25.1940   32.6070   19.9730 C.ar  184  TRP184      0.0006
     94  CD1       26.3450   32.2590   20.6110 C.ar  184  TRP184      0.0946
     95  CD2       25.3470   32.1910   18.6060 C.ar  184  TRP184      0.0152
     96  NE1       27.2170   31.6490   19.7290 N.ar  184  TRP184     -0.2442
     97  CE2       26.6290   31.5950   18.4930 C.ar  184  TRP184      0.0810
     98  CE3       24.5200   32.2630   17.4610 C.ar  184  TRP184      0.0012
     99  CZ2       27.1100   31.0700   17.2850 C.ar  184  TRP184      0.0191
    100  CZ3       24.9930   31.7470   16.2560 C.ar  184  TRP184      0.0001
    101  CH2       26.2810   31.1540   16.1780 C.ar  184  TRP184      0.0015
    102  N         25.2520   35.3260   18.3860 N.am  185  GLY185     -0.1954
    103  CA        25.5440   35.4990   16.9760 C.3   185  GLY185      0.1869
    104  C         25.5660   36.8460   16.2760 C.2   185  GLY185      0.2309
    105  O         24.8060   37.7680   16.6120 O.2   185  GLY185     -0.2863
    106  N         27.4920   39.5290   16.2200 N.3   187  GLU187     -0.1231
    107  CA        28.2090   40.7120   16.6810 C.3   187  GLU187      0.1699
    108  C         29.6830   40.6900   16.2590 C.2   187  GLU187      0.2592
    109  O         30.2480   41.7210   15.9170 O.2   187  GLU187     -0.2718
    110  CB        28.0640   40.8840   18.2130 C.3   187  GLU187      0.0402
    111  CG        29.1260   40.2110   19.0630 C.3   187  GLU187      0.1161
    112  CD        29.0330   38.7040   19.1120 C.2   187  GLU187      0.3649
    113  OE1       30.0650   38.0950   19.4270 O.co2 187  GLU187     -0.2457
    114  OE2       27.9580   38.1190   18.8580 O.co2 187  GLU187     -0.2457
    115  N         30.3080   39.5240   16.2520 N.am  188  ASP188     -0.1974
    116  CA        31.6930   39.4610   15.8380 C.3   188  ASP188      0.1709
    117  C         31.7950   39.6920   14.3250 C.2   188  ASP188      0.2293
    118  O         32.8080   40.2190   13.8490 O.2   188  ASP188     -0.2864
    119  CB        32.3320   38.1260   16.2540 C.3   188  ASP188      0.1436
    120  CG        31.4860   36.9280   15.8790 C.2   188  ASP188      0.3671
    121  OD1       30.2420   37.0770   15.7490 O.co2 188  ASP188     -0.2456
    122  OD2       32.0670   35.8310   15.7350 O.co2 188  ASP188     -0.2456
    123  N         38.3800   24.9310   23.3610 N.3   214  MET214     -0.1245
    124  CA        37.2050   25.5350   23.9720 C.3   214  MET214      0.1570
    125  C         36.6260   24.5380   24.9690 C.2   214  MET214      0.2261
    126  O         36.4640   23.3850   24.6420 O.2   214  MET214     -0.2867
    127  CB        36.0920   25.8600   22.9530 C.3   214  MET214      0.0387
    128  CG        34.9290   26.6450   23.6290 C.3   214  MET214      0.0595
    129  SD        33.3260   26.8290   22.7370 S.3   214  MET214     -0.1393
    130  CE        33.9550   27.7390   21.3300 C.3   214  MET214      0.0692
    131  N         20.7810   33.3150   26.0910 N.3   223  ASN223     -0.1240
    132  CA        21.7190   33.6710   25.0360 C.3   223  ASN223      0.1653
    133  C         21.3910   32.8120   23.8110 C.2   223  ASN223      0.2266
    134  O         22.2870   32.2680   23.1760 O.2   223  ASN223     -0.2867
    135  CB        23.1890   33.4580   25.4010 C.3   223  ASN223      0.1155
    136  CG        24.1150   34.2510   24.4720 C.2   223  ASN223      0.2627
    137  OD1       23.7500   35.3430   24.0480 O.2   223  ASN223     -0.2716
    138  ND2       25.2970   33.7190   24.1640 N.am  223  ASN223     -0.0877
@<TRIPOS>BOND
     1    64    65    1
     2    65    68    1
     3    65    66    1
     4    68    69    1
     5    67    66    2
     6    56    55    2
     7    69    70   ar
     8    69    71   ar
     9    55    54    1
    10    70    72   ar
    11    71    73   ar
    12    57    54    1
    13    57    58    1
    14   118   117    2
    15    54    53    1
    16    60    58   ar
    17    60    62   ar
    18   117   116    1
    19    58    59   ar
    20    62    63   ar
    21    72    74   ar
    22    73    74   ar
    23    59    61   ar
    24    63    61   ar
    25    74    75    1
    26    53    46   am
    27   122   120   ar
    28   121   120   ar
    29    76    77    1
    30    47    46    2
    31   116   115    1
    32   116   119    1
    33   120   119    1
    34   109   108    2
    35   101   100   ar
    36   101    99   ar
    37   106   107    1
    38   115   108   am
    39   100    98   ar
    40   108   107    1
    41   104   105    2
    42   104   103    1
    43    39    38    2
    44    46    45    1
    45    36    37    1
    46   107   110    1
    47   103   102    1
    48    77    78    1
    49    99    97   ar
    50    38    37    1
    51    98    95   ar
    52    79    78    2
    53    37    40    1
    54    40    41    1
    55    45    44    1
    56    45    48    1
    57    51    52    1
    58    51    50    1
    59    78    80   am
    60    49    48    1
    61    49    50    1
    62    91    90    2
    63    42    41    1
    64    42    43    1
    65   110   111    1
    66   102    90   am
    67    97    95   ar
    68    97    96   ar
    69    95    93   ar
    70    90    89    1
    71   114   112   ar
    72   111   112    1
    73   112   113   ar
    74    80    81    1
    75    96    94   ar
    76    93    92    1
    77    93    94   ar
    78    81    82    1
    79    89    92    1
    80    89    88    1
    81    10     9    1
    82    87    86    2
    83    82    83    2
    84    88    86   am
    85   130   129    1
    86    86    85    1
    87    11     9    1
    88     9     8    2
    89    85    84    1
    90    34    33    1
    91    35    33    1
    92     8     7    1
    93     7     6    1
    94    19    17   ar
    95   129   128    1
    96   127   128    1
    97   127   124    1
    98   134   133    2
    99    33    32    1
   100   123   124    1
   101     6     5    1
   102     5     2    1
   103    17    18   ar
   104    17    16    1
   105   133   132    1
   106   124   125    1
   107   137   136    2
   108    32    29    1
   109   138   136   am
   110     3     2    1
   111     3     4    2
   112   136   135    1
   113     2     1    1
   114   126   125    2
   115    16    13    1
   116   132   135    1
   117   132   131    1
   118    12    13    1
   119    29    30    1
   120    29    28    1
   121    26    25   ar
   122    13    14    1
   123    30    31    2
   124    27    25   ar
   125    25    24    1
   126    23    22    2
   127    28    22   am
   128    22    21    1
   129    15    14    2
   130    24    21    1
   131    21    20    1
