@<TRIPOS>MOLECULE
tmp/2fyeA00.pdb
 179 175 0 0 0
SMALL
GASTEIGER

@<TRIPOS>ATOM
      1  N         29.0080   19.6220   50.2960 N.3    19  GLN19      -0.1245
      2  CA        28.3700   18.3370   50.5750 C.3    19  GLN19       0.1566
      3  C         27.6850   18.2710   51.9300 C.2    19  GLN19       0.2260
      4  O         26.8100   17.4320   52.1410 O.2    19  GLN19      -0.2867
      5  CB        29.3800   17.1840   50.4390 C.3    19  GLN19       0.0367
      6  CG        30.5720   17.2400   51.3780 C.3    19  GLN19       0.0905
      7  CD        31.5780   16.1130   51.1190 C.2    19  GLN19       0.2608
      8  OE1       32.0450   15.9260   49.9940 O.2    19  GLN19      -0.2717
      9  NE2       31.9180   15.3680   52.1660 N.am   19  GLN19      -0.0878
     10  N         28.5730   12.4730   53.0950 N.3    23  GLY23      -0.1225
     11  CA        29.8780   12.2440   52.4940 C.3    23  GLY23       0.1811
     12  C         29.8290   11.7990   51.0420 C.2    23  GLY23       0.2280
     13  O         30.4740   10.8210   50.6620 O.2    23  GLY23      -0.2866
     14  N         31.2360   12.9360   48.4360 N.3    25  CYS25      -0.1221
     15  CA        32.3280   13.5070   47.6580 C.3    25  CYS25       0.1808
     16  C         32.4520   12.7880   46.3100 C.2    25  CYS25       0.2601
     17  O         32.6390   13.4290   45.2760 O.2    25  CYS25      -0.2717
     18  CB        33.6460   13.4050   48.4310 C.3    25  CYS25       0.0970
     19  SG        34.2030   11.7080   48.8000 S.3    25  CYS25      -0.0800
     20  N         32.3270   11.4590   46.3260 N.am   26  TRP26      -0.1976
     21  CA        32.4250   10.6620   45.1070 C.3    26  TRP26       0.1640
     22  C         31.3970   11.1090   44.0750 C.2    26  TRP26       0.2290
     23  O         31.6700   11.1000   42.8770 O.2    26  TRP26      -0.2864
     24  CB        32.2140    9.1700   45.3980 C.3    26  TRP26       0.0576
     25  CG        30.8520    8.8460   45.9420 C.ar   26  TRP26       0.0006
     26  CD1       30.4320    8.9720   47.2400 C.ar   26  TRP26       0.0946
     27  CD2       29.7150    8.3790   45.1970 C.ar   26  TRP26       0.0152
     28  NE1       29.1060    8.6130   47.3490 N.ar   26  TRP26      -0.2442
     29  CE2       28.6400    8.2450   46.1130 C.ar   26  TRP26       0.0810
     30  CE3       29.4990    8.0640   43.8480 C.ar   26  TRP26       0.0012
     31  CZ2       27.3670    7.8070   45.7220 C.ar   26  TRP26       0.0191
     32  CZ3       28.2300    7.6280   43.4540 C.ar   26  TRP26       0.0001
     33  CH2       27.1790    7.5030   44.3940 C.ar   26  TRP26       0.0015
     34  N         28.1880   -0.8700   43.9680 N.3    62  GLY62      -0.1225
     35  CA        29.1160   -0.8220   45.0830 C.3    62  GLY62       0.1811
     36  C         29.1850    0.5110   45.8090 C.2    62  GLY62       0.2280
     37  O         30.1460    0.7680   46.5320 O.2    62  GLY62      -0.2866
     38  N         27.6080    3.4280   48.5070 N.3    64  LYS64      -0.1245
     39  CA        26.8570    3.5030   49.7510 C.3    64  LYS64       0.1561
     40  C         26.3440    4.9040   50.0910 C.2    64  LYS64       0.2260
     41  O         26.3860    5.3220   51.2450 O.2    64  LYS64      -0.2867
     42  CB        27.7420    2.9680   50.8880 C.3    64  LYS64       0.0271
     43  CG        28.2230    1.5330   50.6410 C.3    64  LYS64       0.0035
     44  CD        29.5270    1.1920   51.3670 C.3    64  LYS64       0.0206
     45  CE        29.3460    1.0880   52.8800 C.3    64  LYS64       0.1093
     46  NZ        28.4060   -0.0090   53.2820 N.3    64  LYS64      -0.1314
     47  N         25.7140    8.4520   51.1720 N.3    66  CYS66      -0.1221
     48  CA        26.4820    9.3600   52.0130 C.3    66  CYS66       0.1808
     49  C         27.6250    8.6650   52.7450 C.2    66  CYS66       0.2601
     50  O         28.4140    9.3110   53.4360 O.2    66  CYS66      -0.2717
     51  CB        25.5680   10.0330   53.0360 C.3    66  CYS66       0.0970
     52  SG        24.2920   11.0790   52.2750 S.3    66  CYS66      -0.0800
     53  N         27.7190    7.3510   52.5970 N.am   67  ASN67      -0.1960
     54  CA        28.7850    6.6290   53.2650 C.3    67  ASN67       0.1819
     55  C         29.9130    6.2350   52.3380 C.2    67  ASN67       0.2622
     56  O         30.7310    5.3850   52.6850 O.2    67  ASN67      -0.2715
     57  CB        28.2360    5.3980   53.9840 C.3    67  ASN67       0.1195
     58  CG        27.4380    5.7620   55.2180 C.2    67  ASN67       0.2630
     59  OD1       27.9230    6.4790   56.0920 O.2    67  ASN67      -0.2716
     60  ND2       26.2070    5.2730   55.2960 N.am   67  ASN67      -0.0877
     61  N         29.9590    6.8510   51.1590 N.am   68  GLY68      -0.1940
     62  CA        31.0370    6.5630   50.2260 C.3    68  GLY68       0.2014
     63  C         30.6720    5.8470   48.9450 C.2    68  GLY68       0.2639
     64  O         29.6340    5.1920   48.8600 O.2    68  GLY68      -0.2714
     65  N         31.5390    5.9780   47.9450 N.am   69  GLY69      -0.1939
     66  CA        31.3050    5.3370   46.6640 C.3    69  GLY69       0.2014
     67  C         32.4840    5.4870   45.7170 C.2    69  GLY69       0.2639
     68  O         33.5570    5.9500   46.1110 O.2    69  GLY69      -0.2714
     69  N         32.2780    5.0900   44.4650 N.am   70  PHE70      -0.1959
     70  CA        33.3060    5.1670   43.4340 C.3    70  PHE70       0.1771
     71  C         32.8170    6.0520   42.2980 C.2    70  PHE70       0.2619
     72  O         31.6440    5.9950   41.9220 O.2    70  PHE70      -0.2715
     73  CB        33.5910    3.7800   42.8560 C.3    70  PHE70       0.0574
     74  CG        34.0820    2.7880   43.8640 C.ar   70  PHE70      -0.0200
     75  CD1       35.4280    2.7340   44.2060 C.ar   70  PHE70      -0.0042
     76  CD2       33.1950    1.9140   44.4800 C.ar   70  PHE70      -0.0042
     77  CE1       35.8840    1.8220   45.1500 C.ar   70  PHE70      -0.0003
     78  CE2       33.6410    0.9970   45.4280 C.ar   70  PHE70      -0.0003
     79  CZ        34.9890    0.9520   45.7620 C.ar   70  PHE70      -0.0000
     80  N         33.7190    6.8540   41.7410 N.am   71  MET71      -0.1963
     81  CA        33.3600    7.7220   40.6310 C.3    71  MET71       0.1736
     82  C         33.1310    6.9160   39.3500 C.2    71  MET71       0.2617
     83  O         32.2450    7.2410   38.5570 O.2    71  MET71      -0.2715
     84  CB        34.4520    8.7660   40.3860 C.3    71  MET71       0.0427
     85  CG        34.5460    9.8380   41.4670 C.3    71  MET71       0.0599
     86  SD        35.4290    9.3050   42.9500 S.3    71  MET71      -0.1393
     87  CE        37.1130    9.5230   42.4290 C.3    71  MET71       0.0692
     88  N         33.9190    5.8620   39.1530 N.am   72  THR72      -0.1951
     89  CA        33.7840    5.0510   37.9500 C.3    72  THR72       0.1897
     90  C         32.4720    4.2910   37.8860 C.2    72  THR72       0.2313
     91  O         31.8580    4.2220   36.8210 O.2    72  THR72      -0.2863
     92  CB        34.9430    4.0430   37.7940 C.3    72  THR72       0.1794
     93  OG1       34.8850    3.0780   38.8530 O.3    72  THR72      -0.2208
     94  CG2       36.2870    4.7690   37.8320 C.3    72  THR72       0.0378
     95  N         41.0090   10.1380   43.2210 N.3   137  GLY137     -0.1225
     96  CA        40.8940    9.9240   44.6490 C.3   137  GLY137      0.1811
     97  C         42.2070   10.3870   45.2380 C.2   137  GLY137      0.2280
     98  O         43.2540   10.2230   44.6110 O.2   137  GLY137     -0.2866
     99  N         43.2500   12.4440   51.8080 N.3   140  ALA140     -0.1231
    100  CA        42.9480   13.6980   52.4830 C.3   140  ALA140      0.1694
    101  C         42.6790   13.4360   53.9640 C.2   140  ALA140      0.2591
    102  O         41.8310   14.0880   54.5660 O.2   140  ALA140     -0.2718
    103  CB        41.7290   14.3510   51.8400 C.3   140  ALA140      0.0304
    104  N         43.4110   12.4870   54.5440 N.am  141  ARG141     -0.1980
    105  CA        43.2420   12.1220   55.9530 C.3   141  ARG141      0.1597
    106  C         44.0600   12.9720   56.9260 C.2   141  ARG141      0.2287
    107  O         43.8980   12.8450   58.1380 O.2   141  ARG141     -0.2864
    108  CB        43.6280   10.6540   56.1690 C.3   141  ARG141      0.0334
    109  CG        42.8280    9.6460   55.3570 C.3   141  ARG141      0.0492
    110  CD        43.3460    8.2290   55.5770 C.3   141  ARG141      0.2205
    111  NE        44.7560    8.1080   55.2130 N.pl3 141  ARG141     -0.0865
    112  CZ        45.5550    7.1190   55.6140 C.cat 141  ARG141      0.5346
    113  NH1       46.8290    7.0880   55.2340 N.pl3 141  ARG141      0.1354
    114  NH2       45.0850    6.1600   56.4070 N.pl3 141  ARG141      0.1354
    115  N         42.9620   19.9170   55.6290 N.3   146  PHE146     -0.1241
    116  CA        41.7940   20.6780   56.0700 C.3   146  PHE146      0.1605
    117  C         42.1280   22.1460   56.3170 C.2   146  PHE146      0.2264
    118  O         41.3340   23.0330   56.0090 O.2   146  PHE146     -0.2867
    119  CB        41.2170   20.0940   57.3660 C.3   146  PHE146      0.0534
    120  CG        41.2790   18.5900   57.4520 C.ar  146  PHE146     -0.0203
    121  CD1       40.8630   17.7910   56.3910 C.ar  146  PHE146     -0.0042
    122  CD2       41.7240   17.9710   58.6210 C.ar  146  PHE146     -0.0042
    123  CE1       40.8860   16.3960   56.4920 C.ar  146  PHE146     -0.0003
    124  CE2       41.7510   16.5780   58.7330 C.ar  146  PHE146     -0.0003
    125  CZ        41.3300   15.7890   57.6640 C.ar  146  PHE146     -0.0000
    126  N         44.0450    6.3940   49.0400 N.3   162  VAL162     -0.1231
    127  CA        43.0060    7.4060   48.8510 C.3   162  VAL162      0.1692
    128  C         41.7010    7.1740   49.6090 C.2   162  VAL162      0.2592
    129  O         41.3360    6.0410   49.9300 O.2   162  VAL162     -0.2718
    130  CB        42.6660    7.5900   47.3480 C.3   162  VAL162      0.0266
    131  CG1       43.9380    7.8510   46.5640 C.3   162  VAL162      0.0020
    132  CG2       41.9280    6.3660   46.8100 C.3   162  VAL162      0.0020
    133  N         40.9910    8.2610   49.8810 N.am  163  ASN163     -0.1960
    134  CA        39.7270    8.1760   50.5960 C.3   163  ASN163      0.1819
    135  C         38.7990    9.3140   50.2010 C.2   163  ASN163      0.2621
    136  O         37.6410    9.3360   50.6000 O.2   163  ASN163     -0.2715
    137  CB        39.9690    8.2630   52.1020 C.3   163  ASN163      0.1195
    138  CG        40.3340    9.6730   52.5500 C.2   163  ASN163      0.2630
    139  OD1       41.3200   10.2440   52.0910 O.2   163  ASN163     -0.2716
    140  ND2       39.5340   10.2390   53.4460 N.am  163  ASN163     -0.0877
    141  N         39.3030   10.2590   49.4200 N.am  164  HIS164     -0.1959
    142  CA        38.4970   11.4120   49.0460 C.3   164  HIS164      0.1787
    143  C         38.4190   11.6550   47.5360 C.2   164  HIS164      0.2620
    144  O         39.4370   11.8130   46.8590 O.2   164  HIS164     -0.2715
    145  CB        39.0550   12.6380   49.7820 C.3   164  HIS164      0.0785
    146  CG        38.3140   13.9100   49.5170 C.ar  164  HIS164      0.0821
    147  ND1       36.9470   13.9600   49.3550 N.ar  164  HIS164     -0.2267
    148  CD2       38.7470   15.1920   49.4520 C.ar  164  HIS164      0.1154
    149  CE1       36.5690   15.2170   49.2010 C.ar  164  HIS164      0.1986
    150  NE2       37.6420   15.9840   49.2570 N.ar  164  HIS164     -0.2212
    151  N         37.1960   11.6850   47.0160 N.am  165  GLY165     -0.1954
    152  CA        36.9980   11.9010   45.5930 C.3   165  GLY165      0.1869
    153  C         36.8870   13.3680   45.2350 C.2   165  GLY165      0.2309
    154  O         36.0120   14.0700   45.7340 O.2   165  GLY165     -0.2863
    155  N         33.7020   21.0700   49.5410 N.3   186  TRP186     -0.1241
    156  CA        33.4820   21.4900   50.9210 C.3   186  TRP186      0.1605
    157  C         33.1420   22.9770   50.9790 C.2   186  TRP186      0.2264
    158  O         33.5100   23.6710   51.9250 O.2   186  TRP186     -0.2867
    159  CB        34.7210   21.2380   51.7860 C.3   186  TRP186      0.0550
    160  CG        35.1210   19.8030   51.9110 C.ar  186  TRP186      0.0003
    161  CD1       34.3830   18.7010   51.5650 C.ar  186  TRP186      0.0946
    162  CD2       36.3620   19.3100   52.4230 C.ar  186  TRP186      0.0152
    163  NE1       35.0940   17.5530   51.8280 N.ar  186  TRP186     -0.2442
    164  CE2       36.3110   17.8990   52.3560 C.ar  186  TRP186      0.0810
    165  CE3       37.5160   19.9240   52.9320 C.ar  186  TRP186      0.0012
    166  CZ2       37.3720   17.0930   52.7800 C.ar  186  TRP186      0.0191
    167  CZ3       38.5720   19.1190   53.3550 C.ar  186  TRP186      0.0001
    168  CH2       38.4900   17.7180   53.2760 C.ar  186  TRP186      0.0015
    169  N         44.0070    6.3370   40.9950 N.3   211  PHE211     -0.1241
    170  CA        42.8460    5.8240   40.2790 C.3   211  PHE211      0.1605
    171  C         42.0730    6.9170   39.5510 C.2   211  PHE211      0.2264
    172  O         40.9700    7.2850   39.9600 O.2   211  PHE211     -0.2867
    173  CB        41.9210    5.1080   41.2610 C.3   211  PHE211      0.0534
    174  CG        42.5590    3.9350   41.9410 C.ar  211  PHE211     -0.0203
    175  CD1       42.7740    2.7460   41.2500 C.ar  211  PHE211     -0.0042
    176  CD2       42.9680    4.0210   43.2700 C.ar  211  PHE211     -0.0042
    177  CE1       43.3870    1.6540   41.8730 C.ar  211  PHE211     -0.0003
    178  CE2       43.5840    2.9370   43.9030 C.ar  211  PHE211     -0.0003
    179  CZ        43.7930    1.7510   43.2020 C.ar  211  PHE211     -0.0000
@<TRIPOS>BOND
     1    91    90    2
     2    92    94    1
     3    92    89    1
     4    92    93    1
     5    90    89    1
     6    89    88    1
     7    83    82    2
     8    88    82   am
     9    82    81    1
    10   171   172    2
    11   171   170    1
    12   170   169    1
    13   170   173    1
    14    84    81    1
    15    84    85    1
    16    81    80    1
    17   175   177   ar
    18   175   174   ar
    19   173   174    1
    20    85    86    1
    21    80    71   am
    22   177   179   ar
    23    72    71    2
    24   174   176   ar
    25    71    70    1
    26    87    86    1
    27    73    70    1
    28    73    74    1
    29    23    22    2
    30   179   178   ar
    31    95    96    1
    32   176   178   ar
    33    70    69    1
    34    32    30   ar
    35    32    33   ar
    36    30    27   ar
    37    74    75   ar
    38    74    76   ar
    39    34    35    1
    40    22    21    1
    41    75    77   ar
    42    33    31   ar
    43    69    67   am
    44    76    78   ar
    45    98    97    2
    46    96    97    1
    47    35    36    1
    48    21    24    1
    49    21    20    1
    50    77    79   ar
    51    27    25   ar
    52    27    29   ar
    53   153   152    1
    54   153   154    2
    55    17    16    2
    56    24    25    1
    57    78    79   ar
    58   152   151    1
    59    67    68    2
    60    67    66    1
    61    31    29   ar
    62    36    37    2
    63    25    26   ar
    64    29    28   ar
    65    16    20   am
    66    16    15    1
    67   131   130    1
    68    66    65    1
    69   132   130    1
    70   144   143    2
    71   151   143   am
    72    26    28   ar
    73   130   127    1
    74   143   142    1
    75    15    18    1
    76    15    14    1
    77    65    63   am
    78    18    19    1
    79    38    39    1
    80   127   126    1
    81   127   128    1
    82    64    63    2
    83    63    62    1
    84   142   141    1
    85   142   145    1
    86   149   150   ar
    87   149   147   ar
    88   150   148   ar
    89   147   146   ar
    90   141   135   am
    91   148   146   ar
    92   146   145    1
    93   155   156    1
    94   128   133   am
    95   128   129    2
    96    39    40    1
    97    39    42    1
    98   133   134    1
    99     8     7    2
   100    40    41    2
   101   135   134    1
   102   135   136    2
   103    62    61    1
   104     1     2    1
   105     5     2    1
   106     5     6    1
   107     2     3    1
   108   134   137    1
   109    43    42    1
   110    43    44    1
   111    13    12    2
   112   156   157    1
   113   156   159    1
   114   157   158    2
   115    12    11    1
   116     7     6    1
   117     7     9   am
   118    61    55   am
   119    47    48    1
   120    44    45    1
   121   161   163   ar
   122   161   160   ar
   123   159   160    1
   124    99   100    1
   125   163   164   ar
   126   103   100    1
   127   160   162   ar
   128     3     4    2
   129    48    49    1
   130    48    51    1
   131   139   138    2
   132   137   138    1
   133    52    51    1
   134    55    56    2
   135    55    54    1
   136   164   162   ar
   137   164   166   ar
   138   162   165   ar
   139   100   101    1
   140    11    10    1
   141   138   140   am
   142    53    49   am
   143    53    54    1
   144    49    50    2
   145   166   168   ar
   146    45    46    1
   147   165   167   ar
   148    54    57    1
   149   168   167   ar
   150   101   104   am
   151   101   102    2
   152    57    58    1
   153   104   105    1
   154   111   110    1
   155   111   112    2
   156    58    60   am
   157    58    59    2
   158   113   112    1
   159   109   110    1
   160   109   108    1
   161   112   114    1
   162   115   116    1
   163   105   108    1
   164   105   106    1
   165   118   117    2
   166   116   117    1
   167   116   119    1
   168   121   123   ar
   169   121   120   ar
   170   123   125   ar
   171   106   107    2
   172   119   120    1
   173   120   122   ar
   174   125   124   ar
   175   122   124   ar
