@<TRIPOS>MOLECULE
tmp/2fykA01.pdb
 172 167 0 0 0
SMALL
GASTEIGER

@<TRIPOS>ATOM
      1  N        -29.6450   -1.3880   -6.7520 N.3    20  SER20      -0.1202
      2  CA       -28.6440   -2.2210   -7.4090 C.3    20  SER20       0.2020
      3  C        -28.6830   -1.9400   -8.9050 C.2    20  SER20       0.2619
      4  O        -29.7530   -1.9600   -9.5110 O.2    20  SER20      -0.2717
      5  CB       -28.9430   -3.7020   -7.1630 C.3    20  SER20       0.2103
      6  OG       -28.2960   -4.5270   -8.1260 O.3    20  SER20      -0.2182
      7  N        -27.5250   -1.6660   -9.4970 N.am   21  THR21      -0.1938
      8  CA       -27.4730   -1.3980  -10.9270 C.3    21  THR21       0.2028
      9  C        -27.8800   -2.6460  -11.7200 C.2    21  THR21       0.2642
     10  O        -28.4920   -2.5400  -12.7840 O.2    21  THR21      -0.2714
     11  CB       -26.0560   -0.9170  -11.3700 C.3    21  THR21       0.1808
     12  OG1      -25.0700   -1.9100  -11.0460 O.3    21  THR21      -0.2208
     13  CG2      -25.6970    0.3750  -10.6540 C.3    21  THR21       0.0379
     14  N        -27.5580   -3.8270  -11.2010 N.am   22  ASN22      -0.1971
     15  CA       -27.9160   -5.0580  -11.9030 C.3    22  ASN22       0.1688
     16  C        -29.4270   -5.2430  -11.9040 C.2    22  ASN22       0.2292
     17  O        -30.0060   -5.5990  -12.9250 O.2    22  ASN22      -0.2864
     18  CB       -27.2340   -6.2730  -11.2700 C.3    22  ASN22       0.1181
     19  CG       -26.0840   -6.7970  -12.1130 C.2    22  ASN22       0.2629
     20  OD1      -25.3400   -6.0230  -12.7110 O.2    22  ASN22      -0.2716
     21  ND2      -25.9270   -8.1170  -12.1550 N.am   22  ASN22      -0.0877
     22  N        -24.6960    1.9730   -3.8850 N.3    41  GLN41      -0.1245
     23  CA       -25.8240    1.0570   -3.9700 C.3    41  GLN41       0.1566
     24  C        -26.2590    0.7260   -2.5520 C.2    41  GLN41       0.2260
     25  O        -25.4260    0.5350   -1.6650 O.2    41  GLN41      -0.2867
     26  CB       -25.4310   -0.2400   -4.6860 C.3    41  GLN41       0.0367
     27  CG       -24.9060   -0.0540   -6.0930 C.3    41  GLN41       0.0905
     28  CD       -24.6520   -1.3750   -6.7920 C.2    41  GLN41       0.2608
     29  OE1      -25.2470   -1.6670   -7.8320 O.2    41  GLN41      -0.2717
     30  NE2      -23.7640   -2.1850   -6.2230 N.am   41  GLN41      -0.0878
     31  N        -26.6230   -3.6640   -3.1160 N.3    43  GLY43      -0.1210
     32  CA       -25.7520   -4.3170   -4.0760 C.3    43  GLY43       0.1956
     33  C        -25.5960   -5.7750   -3.7010 C.2    43  GLY43       0.2612
     34  O        -25.6320   -6.1220   -2.5200 O.2    43  GLY43      -0.2717
     35  N        -25.4450   -6.6450   -4.6910 N.am   44  HIS44      -0.1961
     36  CA       -25.2820   -8.0590   -4.3790 C.3    44  HIS44       0.1787
     37  C        -24.3660   -8.8100   -5.3240 C.2    44  HIS44       0.2621
     38  O        -24.0680   -8.3570   -6.4300 O.2    44  HIS44      -0.2715
     39  CB       -26.6370   -8.7710   -4.3600 C.3    44  HIS44       0.0785
     40  CG       -27.3360   -8.7700   -5.6820 C.ar   44  HIS44       0.0821
     41  ND1      -27.1140   -9.7300   -6.6440 N.ar   44  HIS44      -0.2267
     42  CD2      -28.2700   -7.9330   -6.1960 C.ar   44  HIS44       0.1154
     43  CE1      -27.8800   -9.4860   -7.6930 C.ar   44  HIS44       0.1986
     44  NE2      -28.5910   -8.4010   -7.4450 N.ar   44  HIS44      -0.2212
     45  N        -23.9240   -9.9730   -4.8550 N.am   45  GLY45      -0.1940
     46  CA       -23.0810  -10.8420   -5.6500 C.3    45  GLY45       0.2014
     47  C        -23.9740  -12.0240   -5.9690 C.2    45  GLY45       0.2638
     48  O        -25.1680  -11.8440   -6.2020 O.2    45  GLY45      -0.2714
     49  N        -23.4290  -13.2340   -5.9710 N.am   46  ARG46      -0.1977
     50  CA       -24.2540  -14.4030   -6.2580 C.3    46  ARG46       0.1597
     51  C        -25.1120  -14.7360   -5.0390 C.2    46  ARG46       0.2287
     52  O        -24.8430  -14.2670   -3.9340 O.2    46  ARG46      -0.2864
     53  CB       -23.3800  -15.6090   -6.5970 C.3    46  ARG46       0.0334
     54  CG       -22.2630  -15.3390   -7.5850 C.3    46  ARG46       0.0492
     55  CD       -21.5560  -16.6400   -7.8980 C.3    46  ARG46       0.2205
     56  NE       -21.3330  -17.4100   -6.6780 N.pl3  46  ARG46      -0.0865
     57  CZ       -21.0660  -18.7110   -6.6520 C.cat  46  ARG46       0.5346
     58  NH1      -20.9850  -19.3940   -7.7840 N.pl3  46  ARG46       0.1354
     59  NH2      -20.9000  -19.3350   -5.4940 N.pl3  46  ARG46       0.1354
     60  N        -25.8480  -12.4140   -2.0680 N.3    49  ARG49      -0.1245
     61  CA       -24.8820  -12.0680   -1.0280 C.3    49  ARG49       0.1563
     62  C        -24.6320  -10.5660   -1.1090 C.2    49  ARG49       0.2260
     63  O        -24.5700  -10.0030   -2.1990 O.2    49  ARG49      -0.2867
     64  CB       -23.5650  -12.8110   -1.2460 C.3    49  ARG49       0.0307
     65  CG       -23.6820  -14.3230   -1.2290 C.3    49  ARG49       0.0489
     66  CD       -22.3900  -14.9510   -1.7260 C.3    49  ARG49       0.2205
     67  NE       -22.5450  -16.3730   -2.0160 N.pl3  49  ARG49      -0.0865
     68  CZ       -21.7110  -17.0770   -2.7770 C.cat  49  ARG49       0.5346
     69  NH1      -20.6580  -16.4990   -3.3300 N.pl3  49  ARG49       0.1354
     70  NH2      -21.9340  -18.3630   -2.9960 N.pl3  49  ARG49       0.1354
     71  N        -23.0390   -7.0200   -1.3900 N.3    51  TRP51      -0.1241
     72  CA       -21.8530   -6.4350   -2.0010 C.3    51  TRP51       0.1605
     73  C        -21.8050   -4.9960   -1.5020 C.2    51  TRP51       0.2264
     74  O        -22.6590   -4.1820   -1.8610 O.2    51  TRP51      -0.2867
     75  CB       -21.9390   -6.4570   -3.5300 C.3    51  TRP51       0.0550
     76  CG       -20.7560   -5.8060   -4.1890 C.ar   51  TRP51       0.0003
     77  CD1      -20.6710   -4.5170   -4.6410 C.ar   51  TRP51       0.0946
     78  CD2      -19.4690   -6.3960   -4.4220 C.ar   51  TRP51       0.0152
     79  NE1      -19.4120   -4.2710   -5.1410 N.ar   51  TRP51      -0.2442
     80  CE2      -18.6560   -5.4070   -5.0190 C.ar   51  TRP51       0.0810
     81  CE3      -18.9250   -7.6660   -4.1850 C.ar   51  TRP51       0.0012
     82  CZ2      -17.3210   -5.6490   -5.3800 C.ar   51  TRP51       0.0191
     83  CZ3      -17.5980   -7.9060   -4.5450 C.ar   51  TRP51       0.0001
     84  CH2      -16.8150   -6.9000   -5.1370 C.ar   51  TRP51       0.0015
     85  N        -19.4710    1.1090   -9.4430 N.3    59  TRP59      -0.1227
     86  CA       -20.5460    0.1230   -9.4230 C.3    59  TRP59       0.1737
     87  C        -21.3850    0.3130  -10.6810 C.2    59  TRP59       0.2595
     88  O        -22.1240    1.2960  -10.7920 O.2    59  TRP59      -0.2718
     89  CB       -21.4200    0.3520   -8.1800 C.3    59  TRP59       0.0564
     90  CG       -20.6700    0.8030   -6.9310 C.ar   59  TRP59       0.0003
     91  CD1      -20.9210    1.9250   -6.1900 C.ar   59  TRP59       0.0946
     92  CD2      -19.5780    0.1370   -6.2820 C.ar   59  TRP59       0.0152
     93  NE1      -20.0570    1.9990   -5.1220 N.ar   59  TRP59      -0.2442
     94  CE2      -19.2210    0.9120   -5.1530 C.ar   59  TRP59       0.0810
     95  CE3      -18.8650   -1.0400   -6.5430 C.ar   59  TRP59       0.0012
     96  CZ2      -18.1820    0.5540   -4.2890 C.ar   59  TRP59       0.0191
     97  CZ3      -17.8250   -1.4000   -5.6830 C.ar   59  TRP59       0.0001
     98  CH2      -17.4990   -0.6020   -4.5680 C.ar   59  TRP59       0.0015
     99  N        -21.2770   -0.6090  -11.6310 N.am   60  LEU60      -0.1966
    100  CA       -22.0340   -0.4530  -12.8660 C.3    60  LEU60       0.1728
    101  C        -22.5260   -1.7550  -13.4730 C.2    60  LEU60       0.2616
    102  O        -22.0730   -2.8470  -13.1140 O.2    60  LEU60      -0.2715
    103  CB       -21.1860    0.3140  -13.8940 C.3    60  LEU60       0.0311
    104  CG       -19.8470   -0.3050  -14.3180 C.3    60  LEU60       0.0022
    105  CD1      -20.0810   -1.3790  -15.3800 C.3    60  LEU60       0.0001
    106  CD2      -18.9290    0.7820  -14.8740 C.3    60  LEU60       0.0001
    107  N        -23.4770   -1.6230  -14.3900 N.am   61  SER61      -0.1950
    108  CA       -24.0300   -2.7700  -15.0980 C.3    61  SER61       0.1924
    109  C        -24.1800   -2.3760  -16.5560 C.2    61  SER61       0.2314
    110  O        -24.4640   -1.2190  -16.8700 O.2    61  SER61      -0.2863
    111  CB       -25.3960   -3.1590  -14.5340 C.3    61  SER61       0.2116
    112  OG       -25.3190   -3.5100  -13.1670 O.3    61  SER61      -0.2180
    113  N        -14.9650  -15.1520  -11.9410 N.3   101  ASN101     -0.1225
    114  CA       -15.5080  -13.7990  -11.8790 C.3   101  ASN101      0.1785
    115  C        -14.8460  -12.7610  -10.9890 C.2   101  ASN101      0.2597
    116  O        -15.3360  -11.6310  -10.8990 O.2   101  ASN101     -0.2718
    117  CB       -16.9720  -13.9040  -11.4630 C.3   101  ASN101      0.1169
    118  CG       -17.1260  -14.3280  -10.0110 C.2   101  ASN101      0.2627
    119  OD1      -16.4330  -15.2400   -9.5410 O.2   101  ASN101     -0.2716
    120  ND2      -18.0320  -13.6700   -9.2920 N.am  101  ASN101     -0.0877
    121  N        -13.7470  -13.1160  -10.3340 N.am  102  ASP102     -0.1974
    122  CA       -13.0930  -12.1760   -9.4360 C.3   102  ASP102      0.1709
    123  C        -11.7440  -11.6970   -9.9080 C.2   102  ASP102      0.2293
    124  O        -11.0480  -12.3930  -10.6430 O.2   102  ASP102     -0.2864
    125  CB       -12.8860  -12.8090   -8.0650 C.3   102  ASP102      0.1436
    126  CG       -14.1540  -13.3340   -7.4810 C.2   102  ASP102      0.3671
    127  OD1      -15.1450  -12.5790   -7.4530 O.co2 102  ASP102     -0.2456
    128  OD2      -14.1520  -14.5080   -7.0520 O.co2 102  ASP102     -0.2456
    129  N         -9.3360   -9.3640   -2.9340 N.3   109  LYS109     -0.1245
    130  CA       -10.3670   -9.0350   -3.9190 C.3   109  LYS109      0.1561
    131  C        -10.5580   -7.5390   -4.1450 C.2   109  LYS109      0.2260
    132  O        -10.9210   -6.8060   -3.2250 O.2   109  LYS109     -0.2867
    133  CB       -11.6850   -9.6790   -3.4910 C.3   109  LYS109      0.0271
    134  CG       -12.7960   -9.5850   -4.5210 C.3   109  LYS109      0.0035
    135  CD       -13.9610  -10.4380   -4.0850 C.3   109  LYS109      0.0206
    136  CE       -15.0610  -10.4290   -5.1190 C.3   109  LYS109      0.1093
    137  NZ       -16.1150  -11.3910   -4.7230 N.3   109  LYS109     -0.1314
    138  N        -15.4090   -7.6840   -8.4830 N.3   112  GLY112     -0.1210
    139  CA       -16.2230   -8.8680   -8.6750 C.3   112  GLY112      0.1956
    140  C        -17.1360   -8.6240   -9.8600 C.2   112  GLY112      0.2612
    141  O        -17.5790   -7.4960  -10.0720 O.2   112  GLY112     -0.2717
    142  N        -17.4060   -9.6750  -10.6270 N.am  113  VAL113     -0.1965
    143  CA       -18.2510   -9.5820  -11.8140 C.3   113  VAL113      0.1727
    144  C        -19.4590  -10.4910  -11.6320 C.2   113  VAL113      0.2616
    145  O        -19.3250  -11.6260  -11.1730 O.2   113  VAL113     -0.2715
    146  CB       -17.4640  -10.0150  -13.0750 C.3   113  VAL113      0.0290
    147  CG1      -18.3420   -9.8810  -14.3190 C.3   113  VAL113      0.0023
    148  CG2      -16.1990   -9.1690  -13.2110 C.3   113  VAL113      0.0023
    149  N        -20.6360   -9.9850  -11.9840 N.am  114  LEU114     -0.1977
    150  CA       -21.8780  -10.7440  -11.8540 C.3   114  LEU114      0.1596
    151  C        -22.7120  -10.6080  -13.1180 C.2   114  LEU114      0.2287
    152  O        -23.1970   -9.5210  -13.4390 O.2   114  LEU114     -0.2864
    153  CB       -22.6950  -10.2330  -10.6660 C.3   114  LEU114      0.0297
    154  CG       -24.0550  -10.9040  -10.4440 C.3   114  LEU114      0.0022
    155  CD1      -23.8430  -12.3660  -10.0910 C.3   114  LEU114      0.0001
    156  CD2      -24.8110  -10.1850   -9.3320 C.3   114  LEU114      0.0001
    157  N        -22.6360   -7.1130  -14.7220 N.3   125  GLY125     -0.1210
    158  CA       -22.4040   -6.2410  -13.5850 C.3   125  GLY125      0.1956
    159  C        -20.9650   -6.2950  -13.1150 C.2   125  GLY125      0.2612
    160  O        -20.3610   -7.3660  -13.0650 O.2   125  GLY125     -0.2717
    161  N        -20.4200   -5.1370  -12.7640 N.am  126  ILE126     -0.1965
    162  CA       -19.0360   -5.0490  -12.3080 C.3   126  ILE126      0.1727
    163  C        -18.9310   -4.1190  -11.1070 C.2   126  ILE126      0.2616
    164  O        -19.4260   -2.9980  -11.1390 O.2   126  ILE126     -0.2715
    165  CB       -18.1160   -4.4980  -13.4220 C.3   126  ILE126      0.0290
    166  CG1      -18.1340   -5.4450  -14.6240 C.3   126  ILE126      0.0022
    167  CG2      -16.6880   -4.3230  -12.8940 C.3   126  ILE126      0.0023
    168  CD1      -17.4660   -4.8750  -15.8660 C.3   126  ILE126      0.0001
    169  N        -18.2870   -4.6010  -10.0490 N.am  127  GLY127     -0.1955
    170  CA       -18.0790   -3.7900   -8.8660 C.3   127  GLY127      0.1869
    171  C        -16.5770   -3.7280   -8.6860 C.2   127  GLY127      0.2309
    172  O        -15.9370   -4.7680   -8.5350 O.2   127  GLY127     -0.2863
@<TRIPOS>BOND
     1   110   109    2
     2   109   108    1
     3   168   166    1
     4   105   104    1
     5   108   111    1
     6   108   107    1
     7   106   104    1
     8   157   158    1
     9   166   165    1
    10   111   112    1
    11   107   101   am
    12   147   146    1
    13   104   103    1
    14   103   100    1
    15   158   159    1
    16   101   102    2
    17   101   100    1
    18   152   151    2
    19   165   167    1
    20   165   162    1
    21   148   146    1
    22   151   150    1
    23   159   160    2
    24   159   161   am
    25   146   143    1
    26    17    16    2
    27   100    99    1
    28    10     9    2
    29   161   162    1
    30    20    19    2
    31   162   163    1
    32    21    19   am
    33    19    18    1
    34   149   150    1
    35   149   144   am
    36   113   114    1
    37    16    15    1
    38    15    18    1
    39    15    14    1
    40   114   117    1
    41   114   115    1
    42   150   153    1
    43   143   144    1
    44   143   142    1
    45     9    14   am
    46     9     8    1
    47   144   145    2
    48    99    87   am
    49   117   118    1
    50    11    12    1
    51    11     8    1
    52    11    13    1
    53   164   163    2
    54   163   169   am
    55   115   116    2
    56   115   121   am
    57     8     7    1
    58    88    87    2
    59    87    86    1
    60   153   154    1
    61   124   123    2
    62   142   140   am
    63   154   155    1
    64   154   156    1
    65   121   122    1
    66   141   140    2
    67   169   170    1
    68   118   119    2
    69   118   120   am
    70   123   122    1
    71   140   139    1
    72     4     3    2
    73     7     3   am
    74    85    86    1
    75   122   125    1
    76    86    89    1
    77     3     2    1
    78   170   171    1
    79   171   172    2
    80   139   138    1
    81    89    90    1
    82     6     5    1
    83   125   126    1
    84    55    54    1
    85    55    56    1
    86    29    28    2
    87    58    57    1
    88    43    44   ar
    89    43    41   ar
    90    54    53    1
    91   126   127   ar
    92   126   128   ar
    93    44    42   ar
    94     2     5    1
    95     2     1    1
    96    90    92   ar
    97    90    91   ar
    98    28    30   am
    99    28    27    1
   100    56    57    2
   101    57    59    1
   102    41    40   ar
   103    53    50    1
   104    95    92   ar
   105    95    97   ar
   106    38    37    2
   107    92    94   ar
   108    50    49    1
   109    50    51    1
   110    48    47    2
   111    42    40   ar
   112    91    93   ar
   113    27    26    1
   114    49    47   am
   115    47    46    1
   116    97    98   ar
   117    40    39    1
   118    46    45    1
   119    82    84   ar
   120    82    80   ar
   121    37    45   am
   122    37    36    1
   123    94    93   ar
   124    94    96   ar
   125    79    80   ar
   126    79    77   ar
   127    84    83   ar
   128   136   137    1
   129   136   135    1
   130    51    52    2
   131    80    78   ar
   132    35    36    1
   133    35    33   am
   134    26    23    1
   135    77    76   ar
   136    98    96   ar
   137    83    81   ar
   138   134   135    1
   139   134   133    1
   140    78    76   ar
   141    78    81   ar
   142    36    39    1
   143    76    75    1
   144   131   130    1
   145   131   132    2
   146    32    33    1
   147    32    31    1
   148    23    22    1
   149    23    24    1
   150   130   133    1
   151   130   129    1
   152    33    34    2
   153    75    72    1
   154    69    68    1
   155    70    68    1
   156    68    67    2
   157    24    25    2
   158    63    62    2
   159    60    61    1
   160    67    66    1
   161    72    73    1
   162    72    71    1
   163    74    73    2
   164    66    65    1
   165    64    65    1
   166    64    61    1
   167    62    61    1
