@<TRIPOS>MOLECULE
tmp/2fykA00.pdb
 152 146 0 0 0
SMALL
GASTEIGER

@<TRIPOS>ATOM
      1  N        -23.9240   -9.9730   -4.8550 N.3    45  GLY45      -0.1210
      2  CA       -23.0810  -10.8420   -5.6500 C.3    45  GLY45       0.1956
      3  C        -23.9740  -12.0240   -5.9690 C.2    45  GLY45       0.2611
      4  O        -25.1680  -11.8440   -6.2020 O.2    45  GLY45      -0.2717
      5  N        -23.4290  -13.2340   -5.9710 N.am   46  ARG46      -0.1979
      6  CA       -24.2540  -14.4030   -6.2580 C.3    46  ARG46       0.1597
      7  C        -25.1120  -14.7360   -5.0390 C.2    46  ARG46       0.2287
      8  O        -24.8430  -14.2670   -3.9340 O.2    46  ARG46      -0.2864
      9  CB       -23.3800  -15.6090   -6.5970 C.3    46  ARG46       0.0334
     10  CG       -22.2630  -15.3390   -7.5850 C.3    46  ARG46       0.0492
     11  CD       -21.5560  -16.6400   -7.8980 C.3    46  ARG46       0.2205
     12  NE       -21.3330  -17.4100   -6.6780 N.pl3  46  ARG46      -0.0865
     13  CZ       -21.0660  -18.7110   -6.6520 C.cat  46  ARG46       0.5346
     14  NH1      -20.9850  -19.3940   -7.7840 N.pl3  46  ARG46       0.1354
     15  NH2      -20.9000  -19.3350   -5.4940 N.pl3  46  ARG46       0.1354
     16  N        -25.8480  -12.4140   -2.0680 N.3    49  ARG49      -0.1231
     17  CA       -24.8820  -12.0680   -1.0280 C.3    49  ARG49       0.1694
     18  C        -24.6320  -10.5660   -1.1090 C.2    49  ARG49       0.2592
     19  O        -24.5700  -10.0030   -2.1990 O.2    49  ARG49      -0.2718
     20  CB       -23.5650  -12.8110   -1.2460 C.3    49  ARG49       0.0321
     21  CG       -23.6820  -14.3230   -1.2290 C.3    49  ARG49       0.0489
     22  CD       -22.3900  -14.9510   -1.7260 C.3    49  ARG49       0.2205
     23  NE       -22.5450  -16.3730   -2.0160 N.pl3  49  ARG49      -0.0865
     24  CZ       -21.7110  -17.0770   -2.7770 C.cat  49  ARG49       0.5346
     25  NH1      -20.6580  -16.4990   -3.3300 N.pl3  49  ARG49       0.1354
     26  NH2      -21.9340  -18.3630   -2.9960 N.pl3  49  ARG49       0.1354
     27  N        -24.4810   -9.9250    0.0460 N.am   50  LYS50      -0.1966
     28  CA       -24.2610   -8.4830    0.1140 C.3    50  LYS50       0.1728
     29  C        -22.9470   -8.0100   -0.5050 C.2    50  LYS50       0.2616
     30  O        -21.8780   -8.5360   -0.1950 O.2    50  LYS50      -0.2715
     31  CB       -24.3130   -8.0270    1.5770 C.3    50  LYS50       0.0311
     32  CG       -24.0730   -6.5360    1.8110 C.3    50  LYS50       0.0038
     33  CD       -25.2640   -5.6910    1.3800 C.3    50  LYS50       0.0206
     34  CE       -25.1340   -4.2580    1.8870 C.3    50  LYS50       0.1093
     35  NZ       -26.2970   -3.4150    1.4990 N.3    50  LYS50      -0.1314
     36  N        -23.0390   -7.0200   -1.3900 N.am   51  TRP51      -0.1960
     37  CA       -21.8530   -6.4350   -2.0010 C.3    51  TRP51       0.1771
     38  C        -21.8050   -4.9960   -1.5020 C.2    51  TRP51       0.2619
     39  O        -22.6590   -4.1820   -1.8610 O.2    51  TRP51      -0.2715
     40  CB       -21.9390   -6.4570   -3.5300 C.3    51  TRP51       0.0590
     41  CG       -20.7560   -5.8060   -4.1890 C.ar   51  TRP51       0.0006
     42  CD1      -20.6710   -4.5170   -4.6410 C.ar   51  TRP51       0.0946
     43  CD2      -19.4690   -6.3960   -4.4220 C.ar   51  TRP51       0.0152
     44  NE1      -19.4120   -4.2710   -5.1410 N.ar   51  TRP51      -0.2442
     45  CE2      -18.6560   -5.4070   -5.0190 C.ar   51  TRP51       0.0810
     46  CE3      -18.9250   -7.6660   -4.1850 C.ar   51  TRP51       0.0012
     47  CZ2      -17.3210   -5.6490   -5.3800 C.ar   51  TRP51       0.0191
     48  CZ3      -17.5980   -7.9060   -4.5450 C.ar   51  TRP51       0.0001
     49  CH2      -16.8150   -6.9000   -5.1370 C.ar   51  TRP51       0.0015
     50  N        -20.8220   -4.6970   -0.6550 N.am   52  GLU52      -0.1977
     51  CA       -20.6680   -3.3590   -0.0920 C.3    52  GLU52       0.1602
     52  C        -20.3950   -2.3730   -1.2180 C.2    52  GLU52       0.2287
     53  O        -19.4160   -2.5230   -1.9520 O.2    52  GLU52      -0.2864
     54  CB       -19.5100   -3.3330    0.9110 C.3    52  GLU52       0.0415
     55  CG       -19.7040   -4.2250    2.1320 C.3    52  GLU52       0.1163
     56  CD       -20.9570   -3.8820    2.9190 C.2    52  GLU52       0.3649
     57  OE1      -21.2540   -2.6790    3.0780 O.co2  52  GLU52      -0.2457
     58  OE2      -21.6380   -4.8160    3.3900 O.co2  52  GLU52      -0.2457
     59  N        -19.4710    1.1090   -9.4430 N.3    59  TRP59      -0.1241
     60  CA       -20.5460    0.1230   -9.4230 C.3    59  TRP59       0.1605
     61  C        -21.3850    0.3130  -10.6810 C.2    59  TRP59       0.2264
     62  O        -22.1240    1.2960  -10.7920 O.2    59  TRP59      -0.2867
     63  CB       -21.4200    0.3520   -8.1800 C.3    59  TRP59       0.0550
     64  CG       -20.6700    0.8030   -6.9310 C.ar   59  TRP59       0.0003
     65  CD1      -20.9210    1.9250   -6.1900 C.ar   59  TRP59       0.0946
     66  CD2      -19.5780    0.1370   -6.2820 C.ar   59  TRP59       0.0152
     67  NE1      -20.0570    1.9990   -5.1220 N.ar   59  TRP59      -0.2442
     68  CE2      -19.2210    0.9120   -5.1530 C.ar   59  TRP59       0.0810
     69  CE3      -18.8650   -1.0400   -6.5430 C.ar   59  TRP59       0.0012
     70  CZ2      -18.1820    0.5540   -4.2890 C.ar   59  TRP59       0.0191
     71  CZ3      -17.8250   -1.4000   -5.6830 C.ar   59  TRP59       0.0001
     72  CH2      -17.4990   -0.6020   -4.5680 C.ar   59  TRP59       0.0015
     73  N         -9.3110  -14.5600  -10.5340 N.3    98  LYS98      -0.1245
     74  CA        -9.6180  -15.7310   -9.7310 C.3    98  LYS98       0.1561
     75  C        -10.8560  -16.2720  -10.4420 C.2    98  LYS98       0.2260
     76  O        -11.9260  -15.6600  -10.3920 O.2    98  LYS98      -0.2867
     77  CB        -9.9780  -15.3440   -8.2960 C.3    98  LYS98       0.0271
     78  CG       -10.5380  -16.4980   -7.4810 C.3    98  LYS98       0.0035
     79  CD       -10.9470  -16.0540   -6.0890 C.3    98  LYS98       0.0206
     80  CE       -11.6040  -17.1920   -5.3360 C.3    98  LYS98       0.1093
     81  NZ       -11.9680  -16.8150   -3.9450 N.3    98  LYS98      -0.1314
     82  N        -14.9650  -15.1520  -11.9410 N.3   101  ASN101     -0.1225
     83  CA       -15.5080  -13.7990  -11.8790 C.3   101  ASN101      0.1785
     84  C        -14.8460  -12.7610  -10.9890 C.2   101  ASN101      0.2597
     85  O        -15.3360  -11.6310  -10.8990 O.2   101  ASN101     -0.2718
     86  CB       -16.9720  -13.9040  -11.4630 C.3   101  ASN101      0.1169
     87  CG       -17.1260  -14.3280  -10.0110 C.2   101  ASN101      0.2627
     88  OD1      -16.4330  -15.2400   -9.5410 O.2   101  ASN101     -0.2716
     89  ND2      -18.0320  -13.6700   -9.2920 N.am  101  ASN101     -0.0877
     90  N        -13.7470  -13.1160  -10.3340 N.am  102  ASP102     -0.1974
     91  CA       -13.0930  -12.1760   -9.4360 C.3   102  ASP102      0.1709
     92  C        -11.7440  -11.6970   -9.9080 C.2   102  ASP102      0.2293
     93  O        -11.0480  -12.3930  -10.6430 O.2   102  ASP102     -0.2864
     94  CB       -12.8860  -12.8090   -8.0650 C.3   102  ASP102      0.1436
     95  CG       -14.1540  -13.3340   -7.4810 C.2   102  ASP102      0.3671
     96  OD1      -15.1450  -12.5790   -7.4530 O.co2 102  ASP102     -0.2456
     97  OD2      -14.1520  -14.5080   -7.0520 O.co2 102  ASP102     -0.2456
     98  N         -9.3360   -9.3640   -2.9340 N.3   109  LYS109     -0.1245
     99  CA       -10.3670   -9.0350   -3.9190 C.3   109  LYS109      0.1561
    100  C        -10.5580   -7.5390   -4.1450 C.2   109  LYS109      0.2260
    101  O        -10.9210   -6.8060   -3.2250 O.2   109  LYS109     -0.2867
    102  CB       -11.6850   -9.6790   -3.4910 C.3   109  LYS109      0.0271
    103  CG       -12.7960   -9.5850   -4.5210 C.3   109  LYS109      0.0035
    104  CD       -13.9610  -10.4380   -4.0850 C.3   109  LYS109      0.0206
    105  CE       -15.0610  -10.4290   -5.1190 C.3   109  LYS109      0.1093
    106  NZ       -16.1150  -11.3910   -4.7230 N.3   109  LYS109     -0.1314
    107  N        -13.4760   -1.7320   -6.4880 N.3   129  ASN129     -0.1240
    108  CA       -13.1310   -0.8360   -5.3920 C.3   129  ASN129      0.1653
    109  C        -12.0660    0.1410   -5.8590 C.2   129  ASN129      0.2266
    110  O        -10.9790   -0.2650   -6.2660 O.2   129  ASN129     -0.2867
    111  CB       -12.6170   -1.6330   -4.1880 C.3   129  ASN129      0.1155
    112  CG       -13.6520   -2.5910   -3.6390 C.2   129  ASN129      0.2627
    113  OD1      -14.7940   -2.2070   -3.3690 O.2   129  ASN129     -0.2716
    114  ND2      -13.2570   -3.8470   -3.4590 N.am  129  ASN129     -0.0877
    115  N        -13.0440    3.7980   -2.2300 N.3   132  ASN132     -0.1240
    116  CA       -13.9130    3.4670   -1.1040 C.3   132  ASN132      0.1653
    117  C        -13.2760    2.5780   -0.0480 C.2   132  ASN132      0.2266
    118  O        -12.2860    1.8970   -0.3060 O.2   132  ASN132     -0.2867
    119  CB       -15.1650    2.7500   -1.6100 C.3   132  ASN132      0.1155
    120  CG       -14.8310    1.5180   -2.4290 C.2   132  ASN132      0.2627
    121  OD1      -14.3060    1.6280   -3.5320 O.2   132  ASN132     -0.2716
    122  ND2      -15.1290    0.3380   -1.8900 N.am  132  ASN132     -0.0877
    123  N        -14.2610   -4.1460    2.7730 N.3   135  PRO135     -0.2116
    124  CA       -14.3330   -5.1300    3.8600 C.3   135  PRO135      0.1372
    125  C        -13.0500   -5.9640    3.9110 C.2   135  PRO135      0.2244
    126  O        -12.2500   -5.9270    2.9780 O.2   135  PRO135     -0.2868
    127  CB       -15.5550   -5.9590    3.4860 C.3   135  PRO135      0.0268
    128  CG       -15.5210   -5.9340    1.9810 C.3   135  PRO135      0.0207
    129  CD       -15.1930   -4.4910    1.6820 C.3   135  PRO135      0.0892
    130  N        -10.4970   -8.8680    3.4370 N.3   137  GLY137     -0.1210
    131  CA       -10.3910   -9.8650    2.3870 C.3   137  GLY137      0.1956
    132  C        -10.3450   -9.1500    1.0500 C.2   137  GLY137      0.2611
    133  O        -10.0910   -9.7570    0.0040 O.2   137  GLY137     -0.2717
    134  N        -10.5750   -7.8400    1.0990 N.am  138  ALA138     -0.1979
    135  CA       -10.5820   -7.0070   -0.0950 C.3   138  ALA138      0.1597
    136  C         -9.5150   -5.9170   -0.1100 C.2   138  ALA138      0.2287
    137  O         -8.8030   -5.6920    0.8700 O.2   138  ALA138     -0.2864
    138  CB       -11.9530   -6.3650   -0.2550 C.3   138  ALA138      0.0319
    139  N        -17.8980  -22.2970   -5.5000 N.3   226  SER226     -0.1202
    140  CA       -16.9760  -21.2600   -5.0730 C.3   226  SER226      0.2020
    141  C        -15.5500  -21.7900   -5.0430 C.2   226  SER226      0.2618
    142  O        -15.2970  -22.8990   -4.5760 O.2   226  SER226     -0.2717
    143  CB       -17.3700  -20.7490   -3.6860 C.3   226  SER226      0.2103
    144  OG       -18.7160  -20.3020   -3.6760 O.3   226  SER226     -0.2182
    145  N        -14.6210  -20.9920   -5.5530 N.am  227  LEU227     -0.1979
    146  CA       -13.2200  -21.3800   -5.5800 C.3   227  LEU227      0.1596
    147  C        -12.4960  -20.7410   -4.4030 C.2   227  LEU227      0.2287
    148  O        -12.7240  -19.5750   -4.0830 O.2   227  LEU227     -0.2864
    149  CB       -12.5850  -20.9350   -6.9010 C.3   227  LEU227      0.0297
    150  CG       -11.1130  -21.2680   -7.1600 C.3   227  LEU227      0.0022
    151  CD1      -10.8110  -21.0680   -8.6360 C.3   227  LEU227      0.0001
    152  CD2      -10.2120  -20.3880   -6.3050 C.3   227  LEU227      0.0001
@<TRIPOS>BOND
     1    82    83    1
     2    83    86    1
     3    83    84    1
     4    86    87    1
     5    84    85    2
     6    84    90   am
     7    62    61    2
     8    61    60    1
     9    93    92    2
    10    73    74    1
    11    75    76    2
    12    75    74    1
    13    90    91    1
    14    87    88    2
    15    87    89   am
    16    92    91    1
    17    74    77    1
    18    59    60    1
    19    91    94    1
    20    60    63    1
    21   151   150    1
    22    77    78    1
    23    63    64    1
    24    94    95    1
    25    11    10    1
    26    11    12    1
    27    14    13    1
    28    10     9    1
    29    95    96   ar
    30    95    97   ar
    31    78    79    1
    32   150   149    1
    33   150   152    1
    34    64    66   ar
    35    64    65   ar
    36   149   146    1
    37    12    13    2
    38    13    15    1
    39     9     6    1
    40    69    66   ar
    41    69    71   ar
    42   107   108    1
    43    66    68   ar
    44   110   109    2
    45     6     5    1
    46     6     7    1
    47     4     3    2
    48    65    67   ar
    49    79    80    1
    50     5     3   am
    51     3     2    1
    52   109   108    1
    53    71    72   ar
    54     2     1    1
    55   146   145    1
    56   146   147    1
    57   145   141   am
    58   139   140    1
    59   108   111    1
    60    47    49   ar
    61    47    45   ar
    62    80    81    1
    63    68    67   ar
    64    68    70   ar
    65    44    45   ar
    66    44    42   ar
    67    49    48   ar
    68   105   106    1
    69   105   104    1
    70   140   141    1
    71   140   143    1
    72   141   142    2
    73     7     8    2
    74    45    43   ar
    75    42    41   ar
    76    72    70   ar
    77    48    46   ar
    78   103   104    1
    79   103   102    1
    80    43    41   ar
    81    43    46   ar
    82   147   148    2
    83    41    40    1
    84   111   112    1
    85   100    99    1
    86   100   101    2
    87    99   102    1
    88    99    98    1
    89   143   144    1
    90   112   114   am
    91   112   113    2
    92   121   120    2
    93    40    37    1
    94    25    24    1
    95    26    24    1
    96    24    23    2
    97   120   122   am
    98   120   119    1
    99   115   116    1
   100    19    18    2
   101    16    17    1
   102    23    22    1
   103    37    38    1
   104    37    36    1
   105    53    52    2
   106    39    38    2
   107    22    21    1
   108   119   116    1
   109    38    50   am
   110    36    29   am
   111    20    21    1
   112    20    17    1
   113    52    51    1
   114    18    17    1
   115    18    27   am
   116   116   117    1
   117    50    51    1
   118    29    30    2
   119    29    28    1
   120   118   117    2
   121   138   135    1
   122   136   135    1
   123   136   137    2
   124   135   134    1
   125    51    54    1
   126   133   132    2
   127    27    28    1
   128    28    31    1
   129    54    55    1
   130   132   134   am
   131   132   131    1
   132    33    32    1
   133    33    34    1
   134    35    34    1
   135    31    32    1
   136   129   128    1
   137   129   123    1
   138   128   127    1
   139    55    56    1
   140   131   130    1
   141   123   124    1
   142    56    57   ar
   143    56    58   ar
   144   126   125    2
   145   127   124    1
   146   124   125    1
