@<TRIPOS>MOLECULE
tmp/2fynA02.pdb
 243 235 0 0 0
SMALL
GASTEIGER

@<TRIPOS>ATOM
      1  N         79.0350   95.3150  143.9440 N.3   135  LEU135     -0.1245
      2  CA        79.5370   94.5400  145.0780 C.3   135  LEU135      0.1561
      3  C         79.6660   93.0580  144.7150 C.2   135  LEU135      0.2260
      4  O         80.6570   92.3950  145.0580 O.2   135  LEU135     -0.2867
      5  CB        78.5840   94.7050  146.2580 C.3   135  LEU135      0.0270
      6  CG        79.2420   94.8490  147.6220 C.3   135  LEU135      0.0019
      7  CD1       80.2850   95.9430  147.5860 C.3   135  LEU135      0.0001
      8  CD2       78.1480   95.1640  148.6260 C.3   135  LEU135      0.0001
      9  N         82.6510   92.2160  142.3330 N.3   138  MET138     -0.1230
     10  CA        83.9140   91.9900  143.0250 C.3   138  MET138      0.1702
     11  C         83.8930   90.6480  143.7620 C.2   138  MET138      0.2592
     12  O         84.8190   89.8350  143.6210 O.2   138  MET138     -0.2718
     13  CB        84.1810   93.0760  144.0380 C.3   138  MET138      0.0401
     14  CG        83.9300   94.4420  143.5470 C.3   138  MET138      0.0596
     15  SD        84.6400   95.6230  144.7110 S.3   138  MET138     -0.1393
     16  CE        86.0640   96.0610  143.7080 C.3   138  MET138      0.0692
     17  N         82.8540   90.4090  144.5610 N.am  139  ALA139     -0.1980
     18  CA        82.7770   89.1470  145.2780 C.3   139  ALA139      0.1597
     19  C         83.0440   88.0200  144.2880 C.2   139  ALA139      0.2287
     20  O         83.8130   87.1210  144.5740 O.2   139  ALA139     -0.2864
     21  CB        81.4380   88.9870  145.8720 C.3   139  ALA139      0.0319
     22  N         86.5970   87.8460  142.6920 N.3   142  PHE142     -0.1227
     23  CA        87.5420   87.4050  143.6930 C.3   142  PHE142      0.1736
     24  C         87.6260   85.8740  143.6970 C.2   142  PHE142      0.2595
     25  O         88.6950   85.3050  143.4830 O.2   142  PHE142     -0.2718
     26  CB        87.1040   87.9660  145.0620 C.3   142  PHE142      0.0547
     27  CG        87.6250   87.1970  146.2250 C.ar  142  PHE142     -0.0202
     28  CD1       88.9830   86.8890  146.3100 C.ar  142  PHE142     -0.0042
     29  CD2       86.7510   86.7110  147.2020 C.ar  142  PHE142     -0.0042
     30  CE1       89.4730   86.0910  147.3500 C.ar  142  PHE142     -0.0003
     31  CE2       87.2190   85.9200  148.2400 C.ar  142  PHE142     -0.0003
     32  CZ        88.5900   85.6030  148.3170 C.ar  142  PHE142     -0.0000
     33  N         86.4750   85.2350  143.9130 N.am  143  MET143     -0.1979
     34  CA        86.3670   83.7810  143.9920 C.3   143  MET143      0.1605
     35  C         86.9150   83.1330  142.7330 C.2   143  MET143      0.2287
     36  O         87.5850   82.0800  142.7840 O.2   143  MET143     -0.2864
     37  CB        84.9110   83.3880  144.2520 C.3   143  MET143      0.0413
     38  CG        84.4520   83.8480  145.6190 C.3   143  MET143      0.0598
     39  SD        82.7800   83.3900  146.0820 S.3   143  MET143     -0.1393
     40  CE        81.7900   84.5840  145.0210 C.3   143  MET143      0.0692
     41  N         89.3110   84.2830  140.7580 N.3   145  TYR145     -0.1241
     42  CA        90.7600   84.3390  140.8740 C.3   145  TYR145      0.1605
     43  C         91.3440   83.2960  141.8430 C.2   145  TYR145      0.2264
     44  O         92.5250   82.9040  141.7280 O.2   145  TYR145     -0.2867
     45  CB        91.2040   85.7400  141.3000 C.3   145  TYR145      0.0534
     46  CG        92.6710   86.0610  140.9670 C.ar  145  TYR145     -0.0201
     47  CD1       93.0970   86.1810  139.6350 C.ar  145  TYR145     -0.0009
     48  CD2       93.6200   86.2850  141.9710 C.ar  145  TYR145     -0.0009
     49  CE1       94.4180   86.5220  139.3130 C.ar  145  TYR145      0.0417
     50  CE2       94.9460   86.6240  141.6520 C.ar  145  TYR145      0.0417
     51  CZ        95.3290   86.7410  140.3170 C.ar  145  TYR145      0.1957
     52  OH        96.6100   87.0920  139.9610 O.3   145  TYR145     -0.2866
     53  N         98.9650   83.9460  143.9240 N.3   152  MET152     -0.1245
     54  CA        98.0520   85.0220  144.2470 C.3   152  MET152      0.1570
     55  C         96.7100   84.4560  144.6810 C.2   152  MET152      0.2261
     56  O         96.0680   84.9740  145.5840 O.2   152  MET152     -0.2867
     57  CB        97.8470   85.9240  143.0520 C.3   152  MET152      0.0387
     58  CG        99.1350   86.4340  142.4900 C.3   152  MET152      0.0595
     59  SD       100.1270   87.3690  143.6370 S.3   152  MET152     -0.1393
     60  CE       101.0670   86.0670  144.3860 C.3   152  MET152      0.0692
     61  N         95.5350   85.7060  148.2520 N.3   156  GLY156     -0.1225
     62  CA        94.4680   86.6770  148.1610 C.3   156  GLY156      0.1811
     63  C         93.2920   86.0360  148.8750 C.2   156  GLY156      0.2280
     64  O         92.4860   86.7150  149.5020 O.2   156  GLY156     -0.2866
     65  N         93.9780   86.5690  152.6050 N.3   159  VAL159     -0.1231
     66  CA        93.7830   87.9680  152.9800 C.3   159  VAL159      0.1692
     67  C         92.3430   88.3960  152.9180 C.2   159  VAL159      0.2592
     68  O         91.8720   89.0150  153.8520 O.2   159  VAL159     -0.2718
     69  CB        94.6600   88.9160  152.0910 C.3   159  VAL159      0.0266
     70  CG1       94.1960   90.3320  152.1940 C.3   159  VAL159      0.0020
     71  CG2       96.1030   88.8360  152.5170 C.3   159  VAL159      0.0020
     72  N         91.6270   88.0660  151.8450 N.am  160  ILE160     -0.1966
     73  CA        90.2390   88.5220  151.7700 C.3   160  ILE160      0.1727
     74  C         89.3540   87.8410  152.8020 C.2   160  ILE160      0.2616
     75  O         88.4570   88.4720  153.3660 O.2   160  ILE160     -0.2715
     76  CB        89.5940   88.3900  150.3520 C.3   160  ILE160      0.0290
     77  CG1       90.0160   89.5260  149.4230 C.3   160  ILE160      0.0022
     78  CG2       88.1250   88.6010  150.4520 C.3   160  ILE160      0.0023
     79  CD1       91.2370   89.2320  148.6280 C.3   160  ILE160      0.0001
     80  N         89.5750   86.5650  153.0680 N.am  161  THR161     -0.1951
     81  CA        88.7470   85.9730  154.0970 C.3   161  THR161      0.1897
     82  C         89.2110   86.5830  155.4320 C.2   161  THR161      0.2313
     83  O         88.4890   86.5490  156.4360 O.2   161  THR161     -0.2863
     84  CB        88.8760   84.4380  154.1710 C.3   161  THR161      0.1794
     85  OG1       90.2510   84.0710  154.0590 O.3   161  THR161     -0.2208
     86  CG2       88.0420   83.7760  153.1010 C.3   161  THR161      0.0378
     87  N         89.7220   89.8160  156.0690 N.3   163  LEU163     -0.1231
     88  CA        88.9870   91.0200  156.3330 C.3   163  LEU163      0.1693
     89  C         87.8260   90.7280  157.2740 C.2   163  LEU163      0.2592
     90  O         87.3980   91.5840  158.0110 O.2   163  LEU163     -0.2718
     91  CB        88.4350   91.5840  155.0310 C.3   163  LEU163      0.0284
     92  CG        89.4020   91.9280  153.9170 C.3   163  LEU163      0.0019
     93  CD1       88.6320   92.3870  152.7430 C.3   163  LEU163      0.0001
     94  CD2       90.3200   93.0260  154.3450 C.3   163  LEU163      0.0001
     95  N         87.2940   89.5210  157.2670 N.am  164  PHE164     -0.1976
     96  CA        86.1600   89.2630  158.1240 C.3   164  PHE164      0.1639
     97  C         86.6130   88.9470  159.4960 C.2   164  PHE164      0.2290
     98  O         85.8230   88.9820  160.4350 O.2   164  PHE164     -0.2864
     99  CB        85.2880   88.1500  157.5370 C.3   164  PHE164      0.0560
    100  CG        84.6960   88.5260  156.2030 C.ar  164  PHE164     -0.0200
    101  CD1       85.4300   88.3620  155.0250 C.ar  164  PHE164     -0.0042
    102  CD2       83.4920   89.2120  156.1380 C.ar  164  PHE164     -0.0042
    103  CE1       84.9820   88.8860  153.8250 C.ar  164  PHE164     -0.0003
    104  CE2       83.0440   89.7360  154.9540 C.ar  164  PHE164     -0.0003
    105  CZ        83.7910   89.5770  153.7950 C.ar  164  PHE164     -0.0000
    106  N         83.6110   80.9870  156.7200 N.3   178  LEU178     -0.1245
    107  CA        83.9860   81.2030  155.3250 C.3   178  LEU178      0.1561
    108  C         85.0330   80.1990  154.8690 C.2   178  LEU178      0.2260
    109  O         84.9890   79.7260  153.7420 O.2   178  LEU178     -0.2867
    110  CB        84.5810   82.5850  155.1310 C.3   178  LEU178      0.0270
    111  CG        83.6020   83.7380  155.1450 C.3   178  LEU178      0.0019
    112  CD1       84.3220   84.9780  154.7150 C.3   178  LEU178      0.0001
    113  CD2       82.4500   83.4470  154.2000 C.3   178  LEU178      0.0001
    114  N         84.0090   75.3800  148.0470 N.3   191  ARG191     -0.1231
    115  CA        82.8210   76.2000  148.2220 C.3   191  ARG191      0.1694
    116  C         82.8830   77.4550  147.3830 C.2   191  ARG191      0.2592
    117  O         81.8530   78.0390  147.0510 O.2   191  ARG191     -0.2718
    118  CB        82.6460   76.5860  149.6940 C.3   191  ARG191      0.0321
    119  CG        83.6100   77.6340  150.2530 C.3   191  ARG191      0.0489
    120  CD        83.4050   77.7100  151.7340 C.3   191  ARG191      0.2205
    121  NE        83.6570   76.3950  152.3160 N.pl3 191  ARG191     -0.0865
    122  CZ        83.2260   75.9760  153.5080 C.cat 191  ARG191      0.5346
    123  NH1       82.5090   76.7770  154.2720 N.pl3 191  ARG191      0.1354
    124  NH2       83.4830   74.7360  153.9330 N.pl3 191  ARG191      0.1354
    125  N         84.0950   77.8810  147.0640 N.am  192  PHE192     -0.1976
    126  CA        84.2870   79.0780  146.2640 C.3   192  PHE192      0.1639
    127  C         83.9140   78.7860  144.8390 C.2   192  PHE192      0.2290
    128  O         83.4450   79.6730  144.1310 O.2   192  PHE192     -0.2864
    129  CB        85.7380   79.5390  146.3080 C.3   192  PHE192      0.0560
    130  CG        86.0580   80.4670  147.4510 C.ar  192  PHE192     -0.0200
    131  CD1       85.2830   80.4780  148.5970 C.ar  192  PHE192     -0.0042
    132  CD2       87.1690   81.2960  147.3920 C.ar  192  PHE192     -0.0042
    133  CE1       85.6080   81.2950  149.6600 C.ar  192  PHE192     -0.0003
    134  CE2       87.4970   82.1090  148.4540 C.ar  192  PHE192     -0.0003
    135  CZ        86.7170   82.1090  149.5860 C.ar  192  PHE192     -0.0000
    136  N         80.1890   78.9690  144.5760 N.3   195  LEU195     -0.1245
    137  CA        79.6640   80.3320  144.6330 C.3   195  LEU195      0.1561
    138  C         80.0480   81.1620  143.4030 C.2   195  LEU195      0.2260
    139  O         79.2720   81.9940  142.9260 O.2   195  LEU195     -0.2867
    140  CB        80.1170   81.0160  145.9390 C.3   195  LEU195      0.0270
    141  CG        79.4410   80.4100  147.1780 C.3   195  LEU195      0.0019
    142  CD1       80.0910   80.9130  148.4500 C.3   195  LEU195      0.0001
    143  CD2       77.9610   80.7430  147.1450 C.3   195  LEU195      0.0001
    144  N        103.6180   90.0850  146.0580 N.3   290  ILE290     -0.1231
    145  CA       102.1850   89.9200  146.0210 C.3   290  ILE290      0.1692
    146  C        101.4820   91.2720  145.8780 C.2   290  ILE290      0.2592
    147  O        101.6670   92.1770  146.6650 O.2   290  ILE290     -0.2718
    148  CB       101.6930   89.1380  147.2580 C.3   290  ILE290      0.0266
    149  CG1      100.1860   89.0430  147.2420 C.3   290  ILE290      0.0019
    150  CG2      102.1030   89.7970  148.5060 C.3   290  ILE290      0.0020
    151  CD1       99.6800   88.0720  148.2420 C.3   290  ILE290      0.0001
    152  N        100.6990   91.4030  144.8180 N.am  291  VAL291     -0.1966
    153  CA        99.9420   92.6190  144.5340 C.3   291  VAL291      0.1712
    154  C         98.5300   92.2210  144.1050 C.2   291  VAL291      0.2458
    155  O         98.3190   91.1890  143.4510 O.2   291  VAL291     -0.2730
    156  CB       100.5330   93.3880  143.3690 C.3   291  VAL291      0.0289
    157  CG1       99.7890   94.6800  143.1750 C.3   291  VAL291      0.0023
    158  CG2      101.9630   93.5940  143.5870 C.3   291  VAL291      0.0023
    159  N         97.5390   93.0310  144.4580 N.am  292  PRO292     -0.2716
    160  CA        96.2040   92.6310  144.0280 C.3   292  PRO292      0.1536
    161  C         95.9530   92.8080  142.5050 C.2   292  PRO292      0.2598
    162  O         96.8170   93.2660  141.7350 O.2   292  PRO292     -0.2715
    163  CB        95.3070   93.5140  144.8880 C.3   292  PRO292      0.0310
    164  CG        96.1090   93.6940  146.1140 C.3   292  PRO292      0.0237
    165  CD        97.4550   94.0090  145.5450 C.3   292  PRO292      0.0939
    166  N         94.7630   92.4150  142.0810 N.am  293  GLU293     -0.1978
    167  CA        94.3870   92.5200  140.6920 C.3   293  GLU293      0.1602
    168  C         94.2090   93.9980  140.4860 C.2   293  GLU293      0.2287
    169  O         93.6780   94.6680  141.3590 O.2   293  GLU293     -0.2864
    170  CB        93.0690   91.7820  140.4540 C.3   293  GLU293      0.0415
    171  CG        93.0810   90.2740  140.7640 C.3   293  GLU293      0.1163
    172  CD        93.0500   89.9510  142.2540 C.2   293  GLU293      0.3649
    173  OE1       94.0930   90.1640  142.9150 O.co2 293  GLU293     -0.2457
    174  OE2       91.9850   89.4850  142.7590 O.co2 293  GLU293     -0.2457
    175  N         91.2790   96.0040  141.7930 N.3   296  PHE296     -0.1241
    176  CA        91.0990   96.0350  143.2560 C.3   296  PHE296      0.1605
    177  C         92.0780   97.0040  143.9190 C.2   296  PHE296      0.2264
    178  O         91.8760   97.3940  145.0730 O.2   296  PHE296     -0.2867
    179  CB        91.3530   94.6780  143.9060 C.3   296  PHE296      0.0534
    180  CG        90.2570   93.6940  143.7240 C.ar  296  PHE296     -0.0203
    181  CD1       88.9950   94.1030  143.3300 C.ar  296  PHE296     -0.0042
    182  CD2       90.4760   92.3410  143.9930 C.ar  296  PHE296     -0.0042
    183  CE1       87.9520   93.1720  143.2070 C.ar  296  PHE296     -0.0003
    184  CE2       89.4470   91.3900  143.8760 C.ar  296  PHE296     -0.0003
    185  CZ        88.1870   91.8040  143.4850 C.ar  296  PHE296     -0.0000
    186  N         90.9220  100.2480  146.1610 N.3   299  PHE299     -0.1227
    187  CA        90.3780   99.9270  147.4930 C.3   299  PHE299      0.1736
    188  C         91.4190   99.2560  148.3840 C.2   299  PHE299      0.2595
    189  O         91.2710   99.2000  149.5980 O.2   299  PHE299     -0.2718
    190  CB        89.1290   99.0480  147.3670 C.3   299  PHE299      0.0547
    191  CG        88.0380   99.7060  146.5880 C.ar  299  PHE299     -0.0202
    192  CD1       87.2330  100.6790  147.1790 C.ar  299  PHE299     -0.0042
    193  CD2       87.9020   99.4590  145.2240 C.ar  299  PHE299     -0.0042
    194  CE1       86.3140  101.4010  146.4150 C.ar  299  PHE299     -0.0003
    195  CE2       86.9920  100.1700  144.4550 C.ar  299  PHE299     -0.0003
    196  CZ        86.1950  101.1460  145.0460 C.ar  299  PHE299     -0.0000
    197  N         92.4790   98.7570  147.7670 N.am  300  TYR300     -0.1976
    198  CA        93.5570   98.1150  148.4970 C.3   300  TYR300      0.1639
    199  C         94.4600   99.2070  149.0440 C.2   300  TYR300      0.2290
    200  O         94.9250   99.1290  150.1780 O.2   300  TYR300     -0.2864
    201  CB        94.3290   97.2090  147.5530 C.3   300  TYR300      0.0560
    202  CG        95.7310   96.8560  147.9780 C.ar  300  TYR300     -0.0198
    203  CD1       95.9690   95.8840  148.9530 C.ar  300  TYR300     -0.0009
    204  CD2       96.8210   97.4130  147.3200 C.ar  300  TYR300     -0.0009
    205  CE1       97.2740   95.4650  149.2490 C.ar  300  TYR300      0.0417
    206  CE2       98.1180   97.0020  147.5950 C.ar  300  TYR300      0.0417
    207  CZ        98.3490   96.0210  148.5530 C.ar  300  TYR300      0.1957
    208  OH        99.6410   95.5390  148.7400 O.3   300  TYR300     -0.2866
    209  N         92.9860  100.7000  152.0620 N.3   303  LEU303     -0.1245
    210  CA        93.0840   99.8810  153.2700 C.3   303  LEU303      0.1561
    211  C         94.4470   99.9180  153.9190 C.2   303  LEU303      0.2260
    212  O         94.5200   99.9020  155.1470 O.2   303  LEU303     -0.2867
    213  CB        92.6940   98.4170  153.0190 C.3   303  LEU303      0.0270
    214  CG        92.9670   97.4860  154.2060 C.3   303  LEU303      0.0019
    215  CD1       91.8680   96.4980  154.3550 C.3   303  LEU303      0.0001
    216  CD2       94.3020   96.7920  154.0130 C.3   303  LEU303      0.0001
    217  N         88.0230  100.9420  153.7600 N.3   334  MET334     -0.1230
    218  CA        87.8090  100.3830  152.4270 C.3   334  MET334      0.1702
    219  C         86.3400  100.1830  152.1200 C.2   334  MET334      0.2592
    220  O         85.8280  100.7370  151.1690 O.2   334  MET334     -0.2718
    221  CB        88.5310   99.0570  152.3140 C.3   334  MET334      0.0401
    222  CG        88.3730   98.3620  150.9870 C.3   334  MET334      0.0596
    223  SD        89.3170   96.8200  151.0080 S.3   334  MET334     -0.1393
    224  CE        88.3210   95.8470  152.1450 C.3   334  MET334      0.0692
    225  N         85.6570   99.3760  152.9140 N.am  335  PHE335     -0.1976
    226  CA        84.2390   99.1760  152.6900 C.3   335  PHE335      0.1639
    227  C         83.5020  100.5070  152.7490 C.2   335  PHE335      0.2290
    228  O         82.5440  100.7250  152.0230 O.2   335  PHE335     -0.2864
    229  CB        83.6700   98.1950  153.7100 C.3   335  PHE335      0.0560
    230  CG        83.9700   96.7610  153.3830 C.ar  335  PHE335     -0.0200
    231  CD1       83.5020   96.1990  152.2050 C.ar  335  PHE335     -0.0042
    232  CD2       84.7660   95.9870  154.2140 C.ar  335  PHE335     -0.0042
    233  CE1       83.8240   94.8920  151.8530 C.ar  335  PHE335     -0.0003
    234  CE2       85.0940   94.6700  153.8710 C.ar  335  PHE335     -0.0003
    235  CZ        84.6210   94.1280  152.6870 C.ar  335  PHE335     -0.0000
    236  N         83.3880  102.5540  149.5380 N.3   338  ILE338     -0.1245
    237  CA        82.3620  102.0830  148.6100 C.3   338  ILE338      0.1561
    238  C         80.9850  102.5290  149.1130 C.2   338  ILE338      0.2260
    239  O         80.2080  103.1020  148.3520 O.2   338  ILE338     -0.2867
    240  CB        82.4340  100.5390  148.4790 C.3   338  ILE338      0.0252
    241  CG1       83.8110  100.1540  147.9400 C.3   338  ILE338      0.0019
    242  CG2       81.3620  100.0110  147.5570 C.3   338  ILE338      0.0019
    243  CD1       84.1600   98.7120  148.1010 C.3   338  ILE338      0.0001
@<TRIPOS>BOND
     1    49    47   ar
     2    49    51   ar
     3    47    46   ar
     4    52    51    1
     5    51    50   ar
     6   170   167    1
     7   170   171    1
     8   168   167    1
     9   168   169    2
    10   167   166    1
    11    41    42    1
    12   171   172    1
    13    42    45    1
    14    42    43    1
    15    46    45    1
    16    46    48   ar
    17    50    48   ar
    18    44    43    2
    19   162   161    2
    20   175   176    1
    21   166   161   am
    22   172   174   ar
    23   172   173   ar
    24     9    10    1
    25    58    57    1
    26    58    59    1
    27   161   160    1
    28    22    23    1
    29    35    36    2
    30    35    34    1
    31   139   138    2
    32    10    11    1
    33    10    13    1
    34    57    54    1
    35   157   156    1
    36   183   181   ar
    37   183   185   ar
    38   176   179    1
    39   176   177    1
    40   181   180   ar
    41   156   158    1
    42   156   153    1
    43   138   137    1
    44   155   154    2
    45    25    24    2
    46   185   184   ar
    47    14    13    1
    48    14    15    1
    49    12    11    2
    50    59    60    1
    51    23    24    1
    52    23    26    1
    53    24    33   am
    54    16    15    1
    55   180   179    1
    56   180   182   ar
    57    11    17   am
    58   184   182   ar
    59    33    34    1
    60   177   178    2
    61    53    54    1
    62     1     2    1
    63    34    37    1
    64   160   159    1
    65   160   163    1
    66   154   159   am
    67   154   153    1
    68   128   127    2
    69    54    55    1
    70    37    38    1
    71    19    20    2
    72    19    18    1
    73   195   196   ar
    74   195   193   ar
    75   159   165    1
    76   153   152    1
    77    17    18    1
    78   136   137    1
    79   137   140    1
    80    55    56    2
    81     3     4    2
    82     3     2    1
    83   152   146   am
    84   127   126    1
    85   163   164    1
    86    40    39    1
    87   196   194   ar
    88    26    27    1
    89     2     5    1
    90   193   191   ar
    91    18    21    1
    92   165   164    1
    93    38    39    1
    94   146   145    1
    95   146   147    2
    96   140   141    1
    97   145   144    1
    98   145   148    1
    99   186   187    1
   100    27    28   ar
   101    27    29   ar
   102     5     6    1
   103   126   129    1
   104   126   125    1
   105   129   130    1
   106    28    30   ar
   107   194   192   ar
   108   191   192   ar
   109   191   190    1
   110   117   116    2
   111   125   116   am
   112   143   141    1
   113   141   142    1
   114    29    31   ar
   115   149   148    1
   116   149   151    1
   117   148   150    1
   118   204   206   ar
   119   204   202   ar
   120    30    32   ar
   121   190   187    1
   122   116   115    1
   123   132   130   ar
   124   132   134   ar
   125   130   131   ar
   126   187   188    1
   127   201   202    1
   128   201   198    1
   129   242   240    1
   130     7     6    1
   131   206   207   ar
   132     6     8    1
   133   197   188   am
   134   197   198    1
   135   241   243    1
   136   241   240    1
   137   202   203   ar
   138   114   115    1
   139    62    61    1
   140    62    63    1
   141   115   118    1
   142    31    32   ar
   143   239   238    2
   144   188   189    2
   145   134   135   ar
   146   240   237    1
   147   198   199    1
   148   207   208    1
   149   207   205   ar
   150   131   133   ar
   151   237   238    1
   152   237   236    1
   153    79    77    1
   154    63    64    2
   155   203   205   ar
   156   199   200    2
   157    77    76    1
   158   135   133   ar
   159   118   119    1
   160   119   120    1
   161    76    78    1
   162    76    73    1
   163   222   223    1
   164   222   221    1
   165   223   224    1
   166   220   219    2
   167   120   121    1
   168    73    72    1
   169    73    74    1
   170    72    67   am
   171   233   231   ar
   172   233   235   ar
   173   228   227    2
   174   209   210    1
   175    69    70    1
   176    69    71    1
   177    69    66    1
   178   219   218    1
   179   219   225   am
   180   231   230   ar
   181   221   218    1
   182   121   122    2
   183   218   217    1
   184    65    66    1
   185   235   234   ar
   186   226   227    1
   187   226   225    1
   188   226   229    1
   189    93    92    1
   190    74    80   am
   191    74    75    2
   192    67    66    1
   193    67    68    2
   194   213   210    1
   195   213   214    1
   196    80    81    1
   197    86    84    1
   198   210   211    1
   199   230   229    1
   200   230   232   ar
   201   122   124    1
   202   122   123    1
   203   109   108    2
   204   105   103   ar
   205   105   104   ar
   206   103   101   ar
   207   234   232   ar
   208    92    94    1
   209    92    91    1
   210   211   212    2
   211   216   214    1
   212    85    84    1
   213    81    84    1
   214    81    82    1
   215   113   111    1
   216   214   215    1
   217   112   111    1
   218   108   107    1
   219   104   102   ar
   220   101   100   ar
   221    91    88    1
   222   110   111    1
   223   110   107    1
   224   107   106    1
   225    82    83    2
   226    87    88    1
   227   102   100   ar
   228   100    99    1
   229    88    89    1
   230    95    89   am
   231    95    96    1
   232    89    90    2
   233    99    96    1
   234    96    97    1
   235    97    98    2
