@<TRIPOS>MOLECULE
tmp/2fypB00.pdb
 103 93 0 0 0
SMALL
GASTEIGER

@<TRIPOS>ATOM
      1  N       -142.2840  -29.0290   90.7410 N.3    40  LEU40      -0.1245
      2  CA      -141.7100  -30.0300   91.6350 C.3    40  LEU40       0.1561
      3  C       -142.5310  -30.1560   92.9220 C.2    40  LEU40       0.2260
      4  O       -142.7080  -31.2510   93.4450 O.2    40  LEU40      -0.2867
      5  CB      -140.2480  -29.6920   91.9430 C.3    40  LEU40       0.0270
      6  CG      -139.3300  -29.7690   90.7060 C.3    40  LEU40       0.0019
      7  CD1     -137.9070  -29.4120   91.0880 C.3    40  LEU40       0.0001
      8  CD2     -139.3810  -31.1720   90.1020 C.3    40  LEU40       0.0001
      9  N       -145.6370  -32.1330   91.9110 N.3    43  ASN43      -0.1225
     10  CA      -145.4020  -33.5690   91.7810 C.3    43  ASN43       0.1785
     11  C       -145.2540  -34.2180   93.1600 C.2    43  ASN43       0.2597
     12  O       -145.7360  -35.3250   93.3850 O.2    43  ASN43      -0.2718
     13  CB      -144.1400  -33.8560   90.9620 C.3    43  ASN43       0.1169
     14  CG      -144.3090  -33.5290   89.4970 C.2    43  ASN43       0.2627
     15  OD1     -145.4320  -33.4030   88.9920 O.2    43  ASN43      -0.2716
     16  ND2     -143.1930  -33.4070   88.7960 N.am   43  ASN43      -0.0877
     17  N       -144.5660  -33.5320   94.0670 N.am   44  ALA44      -0.1979
     18  CA      -144.3530  -34.0420   95.4250 C.3    44  ALA44       0.1597
     19  C       -145.7010  -34.2550   96.1220 C.2    44  ALA44       0.2287
     20  O       -145.9130  -35.2740   96.7860 O.2    44  ALA44      -0.2864
     21  CB      -143.4930  -33.0580   96.2240 C.3    44  ALA44       0.0319
     22  N       -147.3380  -37.2490   94.8300 N.3    47  ALA47      -0.1245
     23  CA      -146.7370  -38.4720   95.3510 C.3    47  ALA47       0.1562
     24  C       -147.2480  -38.7570   96.7670 C.2    47  ALA47       0.2260
     25  O       -147.4000  -39.9200   97.1600 O.2    47  ALA47      -0.2867
     26  CB      -145.1960  -38.3580   95.3510 C.3    47  ALA47       0.0290
     27  N       -150.6730  -40.2600   96.5260 N.3    50  LYS50      -0.1245
     28  CA      -150.6180  -41.6650   96.1580 C.3    50  LYS50       0.1561
     29  C       -150.3900  -42.6040   97.3350 C.2    50  LYS50       0.2260
     30  O       -151.0680  -43.6240   97.4510 O.2    50  LYS50      -0.2867
     31  CB      -149.5410  -41.9060   95.0950 C.3    50  LYS50       0.0271
     32  CG      -149.9140  -41.4130   93.7080 C.3    50  LYS50       0.0035
     33  CD      -149.0020  -42.0340   92.6560 C.3    50  LYS50       0.0206
     34  CE      -149.3270  -41.5340   91.2640 C.3    50  LYS50       0.1093
     35  NZ      -149.0430  -40.0870   91.1530 N.3    50  LYS50      -0.1314
     36  N       -139.6940  -35.4030   99.3670 N.3    85  ASP85      -0.1239
     37  CA      -141.0400  -35.7210   99.8420 C.3    85  ASP85       0.1674
     38  C       -141.0300  -37.1470  100.3670 C.2    85  ASP85       0.2266
     39  O       -140.1370  -37.9310  100.0410 O.2    85  ASP85      -0.2867
     40  CB      -142.0940  -35.5910   98.7240 C.3    85  ASP85       0.1410
     41  CG      -141.9610  -36.6590   97.6460 C.2    85  ASP85       0.3668
     42  OD1     -142.1430  -37.8550   97.9520 O.co2  85  ASP85      -0.2456
     43  OD2     -141.6800  -36.3020   96.4790 O.co2  85  ASP85      -0.2456
     44  N       -145.0720  -41.8760   97.8440 N.3    88  VAL88      -0.1231
     45  CA      -144.9990  -43.2830   97.4760 C.3    88  VAL88       0.1692
     46  C       -143.6420  -43.7570   96.9540 C.2    88  VAL88       0.2593
     47  O       -143.3020  -44.9330   97.0890 O.2    88  VAL88      -0.2718
     48  CB      -146.0800  -43.6160   96.4290 C.3    88  VAL88       0.0266
     49  CG1     -145.7940  -42.8790   95.1280 C.3    88  VAL88       0.0020
     50  CG2     -146.1500  -45.1310   96.2050 C.3    88  VAL88       0.0020
     51  N       -142.8720  -42.8510   96.3560 N.am   89  GLY89      -0.1942
     52  CA      -141.5740  -43.2270   95.8200 C.3    89  GLY89       0.2014
     53  C       -141.6810  -43.9610   94.4890 C.2    89  GLY89       0.2638
     54  O       -142.7750  -44.1530   93.9640 O.2    89  GLY89      -0.2714
     55  N       -140.5370  -44.3780   93.9510 N.am   90  MET90      -0.1976
     56  CA      -140.4970  -45.0830   92.6740 C.3    90  MET90       0.1605
     57  C       -139.4900  -46.2300   92.6890 C.2    90  MET90       0.2287
     58  O       -138.3860  -46.0910   93.2200 O.2    90  MET90      -0.2864
     59  CB      -140.1270  -44.1100   91.5550 C.3    90  MET90       0.0413
     60  CG      -141.0800  -42.9370   91.4080 C.3    90  MET90       0.0598
     61  SD      -140.4200  -41.6680   90.3080 S.3    90  MET90      -0.1393
     62  CE      -140.7160  -42.4250   88.7230 C.3    90  MET90       0.0692
     63  N       -139.6810  -41.7150   83.8700 N.3    99  LEU99      -0.1245
     64  CA      -138.9350  -40.4980   83.5860 C.3    99  LEU99       0.1561
     65  C       -138.2500  -40.5500   82.2180 C.2    99  LEU99       0.2260
     66  O       -137.8890  -39.5100   81.6620 O.2    99  LEU99      -0.2867
     67  CB      -137.8970  -40.2430   84.6890 C.3    99  LEU99       0.0270
     68  CG      -138.3850  -40.1840   86.1450 C.3    99  LEU99       0.0019
     69  CD1     -137.1840  -39.9810   87.0700 C.3    99  LEU99       0.0001
     70  CD2     -139.4000  -39.0580   86.3350 C.3    99  LEU99       0.0001
     71  N       -142.1450  -32.3030   85.4630 N.3   135  PHE135     -0.1241
     72  CA      -140.8260  -32.7130   85.9350 C.3   135  PHE135      0.1605
     73  C       -139.7210  -32.1320   85.0560 C.2   135  PHE135      0.2264
     74  O       -138.6860  -31.6670   85.5550 O.2   135  PHE135     -0.2867
     75  CB      -140.7050  -34.2480   85.9180 C.3   135  PHE135      0.0534
     76  CG      -139.3050  -34.7560   86.1850 C.ar  135  PHE135     -0.0203
     77  CD1     -138.7480  -34.6820   87.4640 C.ar  135  PHE135     -0.0042
     78  CD2     -138.5420  -35.3060   85.1580 C.ar  135  PHE135     -0.0042
     79  CE1     -137.4550  -35.1550   87.7150 C.ar  135  PHE135     -0.0003
     80  CE2     -137.2480  -35.7780   85.4020 C.ar  135  PHE135     -0.0003
     81  CZ      -136.7090  -35.7010   86.6850 C.ar  135  PHE135     -0.0000
     82  N       -132.4780  -37.9320   90.7640 N.3   147  VAL147     -0.1245
     83  CA      -133.6670  -38.3720   91.4820 C.3   147  VAL147      0.1561
     84  C       -133.3400  -39.6020   92.3180 C.2   147  VAL147      0.2260
     85  O       -133.0460  -40.6640   91.7730 O.2   147  VAL147     -0.2867
     86  CB      -134.8240  -38.7230   90.5070 C.3   147  VAL147      0.0252
     87  CG1     -136.0760  -39.1400   91.2970 C.3   147  VAL147      0.0019
     88  CG2     -135.1430  -37.5290   89.6130 C.3   147  VAL147      0.0019
     89  N       -138.9870  -39.5860   97.7450 N.3   181  THR181     -0.1218
     90  CA      -138.1120  -39.1300   96.6710 C.3   181  THR181      0.1862
     91  C       -137.4600  -37.7800   96.9250 C.2   181  THR181      0.2287
     92  O       -138.0830  -36.8700   97.4670 O.2   181  THR181     -0.2866
     93  CB      -138.9070  -38.9780   95.3530 C.3   181  THR181      0.1770
     94  OG1     -139.5510  -40.2140   95.0330 O.3   181  THR181     -0.2211
     95  CG2     -137.9850  -38.5690   94.2150 C.3   181  THR181      0.0375
     96  N       -135.4290  -34.7620   94.8080 N.3   183  ILE183     -0.1245
     97  CA      -135.0540  -34.2760   93.4800 C.3   183  ILE183      0.1561
     98  C       -133.8950  -33.3310   93.7650 C.2   183  ILE183      0.2260
     99  O       -134.0490  -32.3700   94.5160 O.2   183  ILE183     -0.2867
    100  CB      -136.1600  -33.4370   92.7850 C.3   183  ILE183      0.0252
    101  CG1     -137.4840  -34.2080   92.7420 C.3   183  ILE183      0.0019
    102  CG2     -135.6800  -33.0480   91.3630 C.3   183  ILE183      0.0019
    103  CD1     -137.4090  -35.5330   92.0480 C.3   183  ILE183      0.0001
@<TRIPOS>BOND
     1    66    65    2
     2    65    64    1
     3    64    63    1
     4    64    67    1
     5    67    68    1
     6    73    74    2
     7    73    72    1
     8    78    80   ar
     9    78    76   ar
    10    80    81   ar
    11    71    72    1
    12    75    72    1
    13    75    76    1
    14    68    70    1
    15    68    69    1
    16    76    77   ar
    17    81    79   ar
    18    77    79   ar
    19    62    61    1
    20    16    14   am
    21    15    14    2
    22    14    13    1
    23    88    86    1
    24     8     6    1
    25    61    60    1
    26    86    87    1
    27    86    83    1
    28     6     7    1
    29     6     5    1
    30     1     2    1
    31    82    83    1
    32    13    10    1
    33    35    34    1
    34    34    33    1
    35   102   100    1
    36    60    59    1
    37    83    84    1
    38    59    56    1
    39     2     5    1
    40     2     3    1
    41    85    84    2
    42    10     9    1
    43    10    11    1
    44   103   101    1
    45    33    32    1
    46    56    57    1
    47    56    55    1
    48    57    58    2
    49   101   100    1
    50   100    97    1
    51     3     4    2
    52    11    12    2
    53    11    17   am
    54    97    98    1
    55    97    96    1
    56    32    31    1
    57    98    99    2
    58    55    53   am
    59    54    53    2
    60    17    18    1
    61    95    93    1
    62    53    52    1
    63    22    23    1
    64    94    93    1
    65    31    28    1
    66    49    48    1
    67    26    23    1
    68    23    24    1
    69    93    90    1
    70    18    19    1
    71    18    21    1
    72    52    51    1
    73    19    20    2
    74    28    27    1
    75    28    29    1
    76    50    48    1
    77    51    46   am
    78    48    45    1
    79    43    41   ar
    80    90    91    1
    81    90    89    1
    82    24    25    2
    83    91    92    2
    84    46    47    2
    85    46    45    1
    86    29    30    2
    87    45    44    1
    88    41    42   ar
    89    41    40    1
    90    40    37    1
    91    36    37    1
    92    37    38    1
    93    39    38    2
