@<TRIPOS>MOLECULE
tmp/2fysA00.pdb
 259 255 0 0 0
SMALL
GASTEIGER

@<TRIPOS>ATOM
      1  N         10.5870    7.3570    3.7090 N.3    72  GLU72      -0.1231
      2  CA        11.3570    6.8140    2.5920 C.3    72  GLU72       0.1699
      3  C         12.4240    5.8480    3.0870 C.2    72  GLU72       0.2592
      4  O         12.7040    4.8390    2.4450 O.2    72  GLU72      -0.2718
      5  CB        12.0430    7.9350    1.7960 C.3    72  GLU72       0.0402
      6  CG        11.1190    9.0500    1.3010 C.3    72  GLU72       0.1161
      7  CD        11.8460   10.0940    0.4570 C.2    72  GLU72       0.3649
      8  OE1       11.5360   11.2970    0.5900 O.co2  72  GLU72      -0.2457
      9  OE2       12.7200    9.7190   -0.3500 O.co2  72  GLU72      -0.2457
     10  N         13.0020    6.1470    4.2440 N.am   73  ASN73      -0.1974
     11  CA        14.0640    5.3170    4.7940 C.3    73  ASN73       0.1688
     12  C         13.6490    4.2530    5.8100 C.2    73  ASN73       0.2292
     13  O         14.5050    3.6100    6.4210 O.2    73  ASN73      -0.2864
     14  CB        15.1350    6.2200    5.3990 C.3    73  ASN73       0.1181
     15  CG        15.6070    7.2820    4.4270 C.2    73  ASN73       0.2629
     16  OD1       15.5630    8.4710    4.7290 O.2    73  ASN73      -0.2716
     17  ND2       16.0620    6.8560    3.2500 N.am   73  ASN73      -0.0877
     18  N         17.5220   -5.3540   -3.0510 N.3   100  GLU100     -0.1231
     19  CA        18.5220   -6.2700   -3.5740 C.3   100  GLU100      0.1699
     20  C         19.3080   -6.9100   -2.4420 C.2   100  GLU100      0.2592
     21  O         19.0690   -8.0660   -2.0940 O.2   100  GLU100     -0.2718
     22  CB        19.4660   -5.5610   -4.5490 C.3   100  GLU100      0.0402
     23  CG        19.0180   -5.6600   -6.0010 C.3   100  GLU100      0.1161
     24  CD        18.9040   -7.1090   -6.4940 C.2   100  GLU100      0.3649
     25  OE1       18.1540   -7.9050   -5.8800 O.co2 100  GLU100     -0.2457
     26  OE2       19.5640   -7.4510   -7.5030 O.co2 100  GLU100     -0.2457
     27  N         20.2330   -6.1610   -1.8540 N.am  101  THR101     -0.1953
     28  CA        21.0420   -6.6880   -0.7610 C.3   101  THR101      0.1897
     29  C         20.7030   -5.9750    0.5460 C.2   101  THR101      0.2313
     30  O         19.5760   -5.5350    0.7490 O.2   101  THR101     -0.2863
     31  CB        22.5520   -6.5030   -1.0530 C.3   101  THR101      0.1794
     32  OG1       23.3230   -7.1780   -0.0530 O.3   101  THR101     -0.2208
     33  CG2       22.9220   -5.0260   -1.0440 C.3   101  THR101      0.0378
     34  N         25.5110   -7.9870    3.9330 N.3   105  LYS105     -0.1231
     35  CA        26.0280   -8.7030    2.7770 C.3   105  LYS105      0.1693
     36  C         26.9740   -7.7950    1.9870 C.2   105  LYS105      0.2591
     37  O         28.1370   -8.1420    1.7570 O.2   105  LYS105     -0.2718
     38  CB        24.8710   -9.1750    1.8900 C.3   105  LYS105      0.0285
     39  CG        23.9190  -10.1540    2.5780 C.3   105  LYS105      0.0035
     40  CD        22.6670  -10.4130    1.7400 C.3   105  LYS105      0.0206
     41  CE        21.6450  -11.2720    2.4930 C.3   105  LYS105      0.1093
     42  NZ        20.3190  -11.3500    1.7940 N.3   105  LYS105     -0.1314
     43  N         26.4810   -6.6290    1.5850 N.am  106  LEU106     -0.1980
     44  CA        27.3010   -5.6890    0.8320 C.3   106  LEU106      0.1596
     45  C         28.6580   -5.5590    1.5320 C.2   106  LEU106      0.2287
     46  O         29.6800   -5.9700    0.9810 O.2   106  LEU106     -0.2864
     47  CB        26.5930   -4.3350    0.7470 C.3   106  LEU106      0.0297
     48  CG        27.1360   -3.2760   -0.2160 C.3   106  LEU106      0.0022
     49  CD1       26.1520   -2.1220   -0.2850 C.3   106  LEU106      0.0001
     50  CD2       28.5020   -2.7860    0.2420 C.3   106  LEU106      0.0001
     51  N         31.0620   -6.9170    3.1500 N.3   108  LYS108     -0.1231
     52  CA        31.4780   -8.2720    3.4630 C.3   108  LYS108      0.1693
     53  C         32.3130   -8.7340    2.2910 C.2   108  LYS108      0.2593
     54  O         33.3840   -9.3180    2.4640 O.2   108  LYS108     -0.2718
     55  CB        30.2400   -9.1620    3.6220 C.3   108  LYS108      0.0285
     56  CG        30.5170  -10.6220    3.9370 C.3   108  LYS108      0.0035
     57  CD        29.2270  -11.3820    4.2450 C.3   108  LYS108      0.0206
     58  CE        28.2780  -11.4150    3.0490 C.3   108  LYS108      0.1093
     59  NZ        28.8690  -12.1410    1.8850 N.3   108  LYS108     -0.1314
     60  N         31.8160   -8.4360    1.0960 N.am  109  THR109     -0.1939
     61  CA        32.4830   -8.7930   -0.1480 C.3   109  THR109      0.2028
     62  C         32.6110   -7.5630   -1.0370 C.2   109  THR109      0.2642
     63  O         33.3910   -7.5510   -1.9840 O.2   109  THR109     -0.2714
     64  CB        31.6730   -9.8440   -0.9130 C.3   109  THR109      0.1808
     65  OG1       30.4940   -9.2360   -1.4530 O.3   109  THR109     -0.2208
     66  CG2       31.2570  -10.9720    0.0220 C.3   109  THR109      0.0379
     67  N         31.8450   -6.5240   -0.7170 N.am  110  GLN110     -0.1963
     68  CA        31.8300   -5.2930   -1.5030 C.3   110  GLN110      0.1733
     69  C         32.6240   -4.1400   -0.8730 C.2   110  GLN110      0.2616
     70  O         32.7930   -4.0810    0.3420 O.2   110  GLN110     -0.2715
     71  CB        30.3740   -4.8650   -1.7250 C.3   110  GLN110      0.0408
     72  CG        29.8820   -4.9160   -3.1680 C.3   110  GLN110      0.0908
     73  CD        29.9620   -6.2950   -3.7980 C.2   110  GLN110      0.2608
     74  OE1       29.6530   -7.3030   -3.1660 O.2   110  GLN110     -0.2717
     75  NE2       30.3570   -6.3400   -5.0610 N.am  110  GLN110     -0.0878
     76  N         33.1020   -3.2270   -1.7190 N.am  111  HIS111     -0.1959
     77  CA        33.8760   -2.0670   -1.2720 C.3   111  HIS111      0.1787
     78  C         33.1590   -0.7700   -1.6380 C.2   111  HIS111      0.2620
     79  O         32.8470   -0.5390   -2.8020 O.2   111  HIS111     -0.2715
     80  CB        35.2720   -2.0550   -1.9140 C.3   111  HIS111      0.0785
     81  CG        36.1080   -0.8820   -1.4990 C.ar  111  HIS111      0.0821
     82  ND1       35.6620    0.4190   -1.5940 N.ar  111  HIS111     -0.2267
     83  CD2       37.3410   -0.8140   -0.9450 C.ar  111  HIS111      0.1154
     84  CE1       36.5810    1.2370   -1.1130 C.ar  111  HIS111      0.1986
     85  NE2       37.6100    0.5150   -0.7120 N.ar  111  HIS111     -0.2212
     86  N         32.9340    0.0870   -0.6450 N.am  112  LEU112     -0.1977
     87  CA        32.2380    1.3490   -0.8720 C.3   112  LEU112      0.1596
     88  C         33.1250    2.5850   -0.8860 C.2   112  LEU112      0.2287
     89  O         33.9000    2.8150    0.0430 O.2   112  LEU112     -0.2864
     90  CB        31.1480    1.5380    0.1850 C.3   112  LEU112      0.0297
     91  CG        30.0140    0.5150    0.1760 C.3   112  LEU112      0.0022
     92  CD1       29.0230    0.8400    1.2760 C.3   112  LEU112      0.0001
     93  CD2       29.3350    0.5230   -1.1850 C.3   112  LEU112      0.0001
     94  N         32.0120    8.5700   -1.3860 N.3   115  ASP115     -0.1225
     95  CA        30.7580    9.1840   -1.8010 C.3   115  ASP115      0.1805
     96  C         29.5360    8.3410   -1.4400 C.2   115  ASP115      0.2597
     97  O         28.4690    8.8860   -1.1390 O.2   115  ASP115     -0.2718
     98  CB        30.7590    9.4580   -3.3040 C.3   115  ASP115      0.1424
     99  CG        29.6140   10.3540   -3.7210 C.2   115  ASP115      0.3668
    100  OD1       29.4520   10.6020   -4.9340 O.co2 115  ASP115     -0.2456
    101  OD2       28.8730   10.8180   -2.8270 O.co2 115  ASP115     -0.2456
    102  N         29.6860    7.0190   -1.4790 N.am  116  HIS116     -0.1975
    103  CA        28.5870    6.1240   -1.1460 C.3   116  HIS116      0.1656
    104  C         28.3650    6.0910    0.3630 C.2   116  HIS116      0.2291
    105  O         27.2260    6.0300    0.8300 O.2   116  HIS116     -0.2864
    106  CB        28.8720    4.6990   -1.6370 C.3   116  HIS116      0.0771
    107  CG        28.8080    4.5360   -3.1240 C.ar  116  HIS116      0.0820
    108  ND1       29.9290    4.3210   -3.8980 N.ar  116  HIS116     -0.2267
    109  CD2       27.7550    4.5340   -3.9760 C.ar  116  HIS116      0.1154
    110  CE1       29.5690    4.1910   -5.1630 C.ar  116  HIS116      0.1986
    111  NE2       28.2550    4.3150   -5.2380 N.ar  116  HIS116     -0.2212
    112  N         26.4320    9.1690    1.4730 N.3   119  TYR119     -0.1227
    113  CA        25.0270    9.0940    1.1340 C.3   119  TYR119      0.1736
    114  C         24.3460    8.0900    2.0440 C.2   119  TYR119      0.2595
    115  O         23.2780    8.3650    2.5800 O.2   119  TYR119     -0.2718
    116  CB        24.8580    8.6820   -0.3280 C.3   119  TYR119      0.0548
    117  CG        23.4240    8.7050   -0.7980 C.ar  119  TYR119     -0.0200
    118  CD1       22.6300    9.8380   -0.6120 C.ar  119  TYR119     -0.0009
    119  CD2       22.8650    7.6050   -1.4480 C.ar  119  TYR119     -0.0009
    120  CE1       21.3150    9.8770   -1.0620 C.ar  119  TYR119      0.0417
    121  CE2       21.5530    7.6350   -1.9040 C.ar  119  TYR119      0.0417
    122  CZ        20.7830    8.7750   -1.7080 C.ar  119  TYR119      0.1957
    123  OH        19.4870    8.8120   -2.1660 O.3   119  TYR119     -0.2866
    124  N         24.9650    6.9270    2.2240 N.am  120  PHE120     -0.1976
    125  CA        24.3800    5.9080    3.0800 C.3   120  PHE120      0.1639
    126  C         24.1880    6.4470    4.4880 C.2   120  PHE120      0.2290
    127  O         23.1120    6.3120    5.0640 O.2   120  PHE120     -0.2864
    128  CB        25.2530    4.6480    3.1290 C.3   120  PHE120      0.0560
    129  CG        25.1250    3.7570    1.9160 C.ar  120  PHE120     -0.0200
    130  CD1       23.9140    3.6270    1.2490 C.ar  120  PHE120     -0.0042
    131  CD2       26.2150    3.0160    1.4680 C.ar  120  PHE120     -0.0042
    132  CE1       23.7870    2.7680    0.1470 C.ar  120  PHE120     -0.0003
    133  CE2       26.1020    2.1570    0.3720 C.ar  120  PHE120     -0.0003
    134  CZ        24.8860    2.0330   -0.2890 C.ar  120  PHE120     -0.0000
    135  N         23.8110    9.4600    5.5520 N.3   122  TYR122     -0.1227
    136  CA        22.7000   10.4020    5.5600 C.3   122  TYR122      0.1736
    137  C         21.3240    9.7240    5.5770 C.2   122  TYR122      0.2595
    138  O         20.4850   10.0380    6.4220 O.2   122  TYR122     -0.2718
    139  CB        22.7880   11.3340    4.3540 C.3   122  TYR122      0.0548
    140  CG        21.5940   12.2570    4.2310 C.ar  122  TYR122     -0.0200
    141  CD1       21.4330   13.3440    5.0910 C.ar  122  TYR122     -0.0009
    142  CD2       20.6130   12.0330    3.2600 C.ar  122  TYR122     -0.0009
    143  CE1       20.3210   14.1900    4.9840 C.ar  122  TYR122      0.0417
    144  CE2       19.5060   12.8640    3.1450 C.ar  122  TYR122      0.0417
    145  CZ        19.3620   13.9430    4.0030 C.ar  122  TYR122      0.1957
    146  OH        18.2760   14.7840    3.8620 O.3   122  TYR122     -0.2866
    147  N         21.0830    8.8000    4.6510 N.am  123  GLN123     -0.1979
    148  CA        19.7900    8.1230    4.6130 C.3   123  GLN123      0.1601
    149  C         19.4960    7.4780    5.9620 C.2   123  GLN123      0.2287
    150  O         18.3560    7.5050    6.4400 O.2   123  GLN123     -0.2864
    151  CB        19.7580    7.0700    3.5060 C.3   123  GLN123      0.0394
    152  CG        19.8790    7.6400    2.1040 C.3   123  GLN123      0.0908
    153  CD        19.4350    6.6550    1.0350 C.2   123  GLN123      0.2608
    154  OE1       18.2590    6.3140    0.9340 O.2   123  GLN123     -0.2717
    155  NE2       20.3800    6.1910    0.2340 N.am  123  GLN123     -0.0878
    156  N         18.7150   10.3610    8.3910 N.3   126  ARG126     -0.1245
    157  CA        17.4360   10.9620    8.0330 C.3   126  ARG126      0.1563
    158  C         16.2850   10.1080    8.5550 C.2   126  ARG126      0.2260
    159  O         15.2900   10.6260    9.0490 O.2   126  ARG126     -0.2867
    160  CB        17.3310   11.1170    6.5190 C.3   126  ARG126      0.0307
    161  CG        16.0170   11.7060    6.0300 C.3   126  ARG126      0.0489
    162  CD        16.1570   12.1370    4.5790 C.3   126  ARG126      0.2205
    163  NE        14.8990   12.5790    3.9890 N.pl3 126  ARG126     -0.0865
    164  CZ        13.9930   11.7710    3.4440 C.cat 126  ARG126      0.5346
    165  NH1       14.1970   10.4660    3.4060 N.pl3 126  ARG126      0.1354
    166  NH2       12.8820   12.2740    2.9310 N.pl3 126  ARG126      0.1354
    167  N         18.8670   -2.3540    0.9410 N.3   148  LEU148     -0.1231
    168  CA        19.2120   -1.4890   -0.1860 C.3   148  LEU148      0.1693
    169  C         19.1830   -2.1390   -1.5740 C.2   148  LEU148      0.2592
    170  O         19.5580   -3.3030   -1.7380 O.2   148  LEU148     -0.2718
    171  CB        20.6090   -0.8930    0.0120 C.3   148  LEU148      0.0284
    172  CG        21.4240   -1.2080    1.2670 C.3   148  LEU148      0.0019
    173  CD1       22.7770   -1.7780    0.8840 C.3   148  LEU148      0.0001
    174  CD2       21.5870    0.0650    2.0910 C.3   148  LEU148      0.0001
    175  N         18.7330   -1.3760   -2.5710 N.am  149  ASN149     -0.1960
    176  CA        18.7370   -1.8510   -3.9510 C.3   149  ASN149      0.1819
    177  C         19.7810   -1.0170   -4.6980 C.2   149  ASN149      0.2622
    178  O         20.2360    0.0080   -4.1920 O.2   149  ASN149     -0.2715
    179  CB        17.3560   -1.7430   -4.6250 C.3   149  ASN149      0.1195
    180  CG        16.4360   -0.7550   -3.9490 C.2   149  ASN149      0.2630
    181  OD1       16.7550    0.4270   -3.8170 O.2   149  ASN149     -0.2716
    182  ND2       15.2680   -1.2360   -3.5280 N.am  149  ASN149     -0.0877
    183  N         20.1600   -1.4590   -5.8910 N.am  150  THR150     -0.1937
    184  CA        21.1910   -0.7920   -6.6760 C.3   150  THR150      0.2028
    185  C         21.1190    0.7290   -6.7900 C.2   150  THR150      0.2643
    186  O         22.1500    1.3850   -6.9350 O.2   150  THR150     -0.2714
    187  CB        21.2910   -1.4280   -8.0930 C.3   150  THR150      0.1808
    188  OG1       21.8490   -2.7500   -7.9810 O.3   150  THR150     -0.2208
    189  CG2       22.1820   -0.5970   -9.0040 C.3   150  THR150      0.0379
    190  N         19.9220    1.2950   -6.7120 N.am  151  THR151     -0.1936
    191  CA        19.7610    2.7480   -6.8090 C.3   151  THR151      0.2028
    192  C         20.4290    3.4880   -5.6530 C.2   151  THR151      0.2642
    193  O         20.5010    4.7120   -5.6560 O.2   151  THR151     -0.2714
    194  CB        18.2890    3.1380   -6.7670 C.3   151  THR151      0.1808
    195  OG1       17.7310    2.7050   -5.5190 O.3   151  THR151     -0.2208
    196  CG2       17.5300    2.4960   -7.9200 C.3   151  THR151      0.0379
    197  N         20.8960    2.7290   -4.6670 N.am  152  CYS152     -0.1953
    198  CA        21.5350    3.2570   -3.4650 C.3   152  CYS152      0.1843
    199  C         20.5220    3.6420   -2.3850 C.2   152  CYS152      0.2625
    200  O         20.8750    4.3010   -1.4070 O.2   152  CYS152     -0.2714
    201  CB        22.4330    4.4570   -3.7870 C.3   152  CYS152      0.0997
    202  SG        24.1450    4.0120   -4.1940 S.3   152  CYS152     -0.0797
    203  N         19.2670    3.2300   -2.5600 N.am  153  ASP153     -0.1971
    204  CA        18.2350    3.5190   -1.5720 C.3   153  ASP153      0.1709
    205  C         18.4650    2.6540   -0.3470 C.2   153  ASP153      0.2293
    206  O         18.7220    1.4550   -0.4590 O.2   153  ASP153     -0.2864
    207  CB        16.8390    3.2400   -2.1280 C.3   153  ASP153      0.1436
    208  CG        16.3830    4.2970   -3.1080 C.2   153  ASP153      0.3671
    209  OD1       16.9060    5.4320   -3.0360 O.co2 153  ASP153     -0.2456
    210  OD2       15.4950    4.0000   -3.9380 O.co2 153  ASP153     -0.2456
    211  N         26.1140   18.1580    1.6960 N.3   298  GLN298     -0.1231
    212  CA        25.6240   18.1840    0.3250 C.3   298  GLN298      0.1698
    213  C         24.2050   17.6180    0.2500 C.2   298  GLN298      0.2592
    214  O         23.4820   17.8720   -0.7130 O.2   298  GLN298     -0.2718
    215  CB        26.5530   17.3820   -0.5950 C.3   298  GLN298      0.0381
    216  CG        26.6440   15.9070   -0.2560 C.3   298  GLN298      0.0905
    217  CD        27.8790   15.5610    0.5550 C.2   298  GLN298      0.2608
    218  OE1       28.9890   15.5090    0.0220 O.2   298  GLN298     -0.2717
    219  NE2       27.6940   15.3280    1.8500 N.am  298  GLN298     -0.0878
    220  N         23.8140   16.8630    1.2770 N.am  299  TYR299     -0.1962
    221  CA        22.4900   16.2430    1.3480 C.3   299  TYR299      0.1771
    222  C         21.5790   16.8820    2.4010 C.2   299  TYR299      0.2620
    223  O         20.3540   16.7500    2.3400 O.2   299  TYR299     -0.2715
    224  CB        22.6280   14.7540    1.6740 C.3   299  TYR299      0.0574
    225  CG        23.3750   13.9510    0.6400 C.ar  299  TYR299     -0.0198
    226  CD1       22.8330   13.7320   -0.6320 C.ar  299  TYR299     -0.0009
    227  CD2       24.6290   13.4130    0.9240 C.ar  299  TYR299     -0.0009
    228  CE1       23.5250   12.9950   -1.5980 C.ar  299  TYR299      0.0417
    229  CE2       25.3320   12.6750   -0.0360 C.ar  299  TYR299      0.0417
    230  CZ        24.7750   12.4720   -1.2940 C.ar  299  TYR299      0.1957
    231  OH        25.4730   11.7670   -2.2500 O.3   299  TYR299     -0.2866
    232  N         22.1800   17.5710    3.3640 N.am  300  TYR300     -0.1960
    233  CA        21.4250   18.2030    4.4400 C.3   300  TYR300      0.1771
    234  C         20.3350   19.1850    4.0100 C.2   300  TYR300      0.2619
    235  O         20.5980   20.1180    3.2530 O.2   300  TYR300     -0.2715
    236  CB        22.3820   18.9080    5.4040 C.3   300  TYR300      0.0574
    237  CG        21.6810   19.5170    6.5960 C.ar  300  TYR300     -0.0198
    238  CD1       20.8570   18.7420    7.4140 C.ar  300  TYR300     -0.0009
    239  CD2       21.8300   20.8630    6.9020 C.ar  300  TYR300     -0.0009
    240  CE1       20.2020   19.2920    8.5000 C.ar  300  TYR300      0.0417
    241  CE2       21.1770   21.4240    7.9910 C.ar  300  TYR300      0.0417
    242  CZ        20.3640   20.6300    8.7820 C.ar  300  TYR300      0.1957
    243  OH        19.6940   21.1830    9.8370 O.3   300  TYR300     -0.2866
    244  N         19.1200   18.9600    4.5150 N.am  301  ASP301     -0.1971
    245  CA        17.9470   19.7970    4.2450 C.3   301  ASP301      0.1709
    246  C         16.8190   19.4200    5.2060 C.2   301  ASP301      0.2293
    247  O         15.9890   18.5750    4.8910 O.2   301  ASP301     -0.2864
    248  CB        17.4600   19.6190    2.7980 C.3   301  ASP301      0.1436
    249  CG        16.1160   20.2970    2.5440 C.2   301  ASP301      0.3671
    250  OD1       15.6670   21.0720    3.4150 O.co2 301  ASP301     -0.2456
    251  OD2       15.5090   20.0630    1.4750 O.co2 301  ASP301     -0.2456
    252  N         13.4010   18.3830    4.2280 N.3   304  ASP304     -0.1239
    253  CA        13.2450   17.1120    3.5390 C.3   304  ASP304      0.1674
    254  C         13.5680   15.9820    4.5110 C.2   304  ASP304      0.2266
    255  O         13.8560   14.8590    4.1130 O.2   304  ASP304     -0.2867
    256  CB        14.1740   17.0610    2.3270 C.3   304  ASP304      0.1410
    257  CG        13.7420   16.0240    1.3120 C.2   304  ASP304      0.3668
    258  OD1       12.5130   15.8460    1.1540 O.co2 304  ASP304     -0.2456
    259  OD2       14.6180   15.4040    0.6690 O.co2 304  ASP304     -0.2456
@<TRIPOS>BOND
     1   189   187    1
     2   187   188    1
     3   187   184    1
     4   196   194    1
     5    26    24   ar
     6   186   185    2
     7   191   194    1
     8   191   190    1
     9   191   192    1
    10   185   190   am
    11   185   184    1
    12   194   195    1
    13   184   183    1
    14    24    23    1
    15    24    25   ar
    16    23    22    1
    17   183   177   am
    18   193   192    2
    19   192   197   am
    20   111   110   ar
    21   111   109   ar
    22   110   108   ar
    23    75    73   am
    24   100    99   ar
    25   177   178    2
    26   177   176    1
    27   197   198    1
    28   179   176    1
    29   179   180    1
    30    22    19    1
    31   202   201    1
    32   109   107   ar
    33   176   175    1
    34   180   181    2
    35   180   182   am
    36   210   208   ar
    37   108   107   ar
    38    73    72    1
    39    73    74    2
    40   201   198    1
    41    99    98    1
    42    99   101   ar
    43    19    18    1
    44    19    20    1
    45   198   199    1
    46    98    95    1
    47    72    71    1
    48   107   106    1
    49   208   209   ar
    50   208   207    1
    51    79    78    2
    52   175   169   am
    53   203   199   am
    54   203   204    1
    55    20    21    2
    56    20    27   am
    57   199   200    2
    58   231   230    1
    59   123   122    1
    60   207   204    1
    61    63    62    2
    62    80    81    1
    63    80    77    1
    64   121   122   ar
    65   121   119   ar
    66    27    28    1
    67    95    96    1
    68    95    94    1
    69   170   169    2
    70    71    68    1
    71    76    77    1
    72    76    69   am
    73   122   120   ar
    74    78    77    1
    75    78    86   am
    76   106   103    1
    77   228   230   ar
    78   228   226   ar
    79    82    81   ar
    80    82    84   ar
    81   169   168    1
    82   204   205    1
    83    68    69    1
    84    68    67    1
    85    81    83   ar
    86   102    96   am
    87   102   103    1
    88    65    64    1
    89   119   117   ar
    90    96    97    2
    91   230   229   ar
    92    93    91    1
    93   103   104    1
    94    84    85   ar
    95   120   118   ar
    96    31    33    1
    97    31    28    1
    98    31    32    1
    99    62    67   am
   100    62    61    1
   101    83    85   ar
   102    64    61    1
   103    64    66    1
   104    88    87    1
   105    88    89    2
   106    69    70    2
   107    87    86    1
   108    87    90    1
   109   117   118   ar
   110   117   116    1
   111    28    29    1
   112   214   213    2
   113   226   225   ar
   114   215   216    1
   115   215   212    1
   116   206   205    2
   117     9     7   ar
   118   116   113    1
   119   134   132   ar
   120   134   133   ar
   121    49    48    1
   122   216   217    1
   123    48    50    1
   124    48    47    1
   125   168   171    1
   126   168   167    1
   127    61    60    1
   128   229   227   ar
   129   171   172    1
   130   218   217    2
   131   132   130   ar
   132    91    90    1
   133    91    92    1
   134   155   153   am
   135   213   212    1
   136   213   220   am
   137   212   211    1
   138   104   105    2
   139   133   131   ar
   140     7     8   ar
   141     7     6    1
   142    29    30    2
   143   217   219   am
   144   225   227   ar
   145   225   224    1
   146   259   257   ar
   147    47    44    1
   148    44    45    1
   149    44    43    1
   150   173   172    1
   151   154   153    2
   152    46    45    2
   153   153   152    1
   154    60    53   am
   155   113   112    1
   156   113   114    1
   157   258   257   ar
   158   130   129   ar
   159   172   174    1
   160   220   221    1
   161     6     5    1
   162   257   256    1
   163   221   224    1
   164   221   222    1
   165   131   129   ar
   166   251   249   ar
   167    43    36   am
   168    40    41    1
   169    40    39    1
   170    37    36    2
   171    42    41    1
   172     5     2    1
   173    59    58    1
   174    38    39    1
   175    38    35    1
   176   129   128    1
   177    36    35    1
   178   114   124   am
   179   114   115    2
   180   152   151    1
   181   124   125    1
   182    53    54    2
   183    53    52    1
   184   256   253    1
   185   223   222    2
   186   222   232   am
   187     4     3    2
   188   249   248    1
   189   249   250   ar
   190     2     3    1
   191     2     1    1
   192    35    34    1
   193   248   245    1
   194   166   164    1
   195    58    57    1
   196   125   128    1
   197   125   126    1
   198     3    10   am
   199   144   142   ar
   200   144   145   ar
   201    51    52    1
   202    17    15   am
   203   235   234    2
   204   142   140   ar
   205   232   233    1
   206   165   164    1
   207   164   163    2
   208    52    55    1
   209   151   148    1
   210   253   252    1
   211   253   254    1
   212    55    56    1
   213   146   145    1
   214    56    57    1
   215   163   162    1
   216   145   143   ar
   217   234   233    1
   218   234   244   am
   219   255   254    2
   220   140   139    1
   221   140   141   ar
   222    10    11    1
   223   245   244    1
   224   245   246    1
   225   139   136    1
   226    15    16    2
   227    15    14    1
   228   233   236    1
   229   126   127    2
   230   162   161    1
   231   148   147    1
   232   148   149    1
   233   147   137   am
   234    11    14    1
   235    11    12    1
   236   247   246    2
   237   143   141   ar
   238   236   237    1
   239   135   136    1
   240   136   137    1
   241   137   138    2
   242    12    13    2
   243   149   150    2
   244   161   160    1
   245   160   157    1
   246   237   239   ar
   247   237   238   ar
   248   239   241   ar
   249   238   240   ar
   250   241   242   ar
   251   157   156    1
   252   157   158    1
   253   240   242   ar
   254   158   159    2
   255   242   243    1
