@<TRIPOS>MOLECULE
tmp/2fyuC02.pdb
 160 157 0 0 0
SMALL
GASTEIGER

@<TRIPOS>ATOM
      1  N         62.7590   62.9740  157.3080 N.3    90  PHE90      -0.1241
      2  CA        62.8890   61.5290  157.1110 C.3    90  PHE90       0.1605
      3  C         61.7350   60.8630  156.3950 C.2    90  PHE90       0.2264
      4  O         61.9780   59.9230  155.6240 O.2    90  PHE90      -0.2867
      5  CB        63.2480   60.8090  158.4010 C.3    90  PHE90       0.0534
      6  CG        64.7220   60.8520  158.7210 C.ar   90  PHE90      -0.0203
      7  CD1       65.2520   61.8880  159.5370 C.ar   90  PHE90      -0.0042
      8  CD2       65.6000   59.8670  158.2010 C.ar   90  PHE90      -0.0042
      9  CE1       66.6510   61.9830  159.7890 C.ar   90  PHE90      -0.0003
     10  CE2       67.0080   59.9340  158.4520 C.ar   90  PHE90      -0.0003
     11  CZ        67.5350   60.9910  159.2660 C.ar   90  PHE90      -0.0000
     12  N         71.3040   61.7490  158.2600 N.3   123  MET123     -0.1245
     13  CA        71.3610   60.7590  159.3410 C.3   123  MET123      0.1570
     14  C         72.3460   61.1360  160.4550 C.2   123  MET123      0.2261
     15  O         71.9110   61.3210  161.6060 O.2   123  MET123     -0.2867
     16  CB        71.6750   59.3850  158.7760 C.3   123  MET123      0.0387
     17  CG        70.4440   58.6340  158.3010 C.3   123  MET123      0.0595
     18  SD        70.8690   57.1360  157.4070 S.3   123  MET123     -0.1393
     19  CE        71.2520   56.0030  158.7580 C.3   123  MET123      0.0692
     20  N         70.9720   64.4330  162.1500 N.3   126  ALA126     -0.1231
     21  CA        69.8300   64.2710  163.0470 C.3   126  ALA126      0.1694
     22  C         70.1710   63.4990  164.3130 C.2   126  ALA126      0.2592
     23  O         69.5460   63.7300  165.3510 O.2   126  ALA126     -0.2718
     24  CB        68.6730   63.6460  162.3260 C.3   126  ALA126      0.0304
     25  N         71.1090   62.5450  164.2020 N.am  127  PHE127     -0.1976
     26  CA        71.7470   61.8950  165.3570 C.3   127  PHE127      0.1639
     27  C         72.3810   62.9100  166.3320 C.2   127  PHE127      0.2290
     28  O         71.9910   62.9450  167.5050 O.2   127  PHE127     -0.2864
     29  CB        72.7430   60.7910  164.9220 C.3   127  PHE127      0.0560
     30  CG        73.7660   60.4040  166.0000 C.ar  127  PHE127     -0.0200
     31  CD1       75.1460   60.6690  165.7960 C.ar  127  PHE127     -0.0042
     32  CD2       73.3520   59.8070  167.2390 C.ar  127  PHE127     -0.0042
     33  CE1       76.1210   60.3500  166.8060 C.ar  127  PHE127     -0.0003
     34  CE2       74.2900   59.6100  168.3160 C.ar  127  PHE127     -0.0003
     35  CZ        75.6850   59.8040  168.0760 C.ar  127  PHE127     -0.0000
     36  N         69.7640   65.3050  168.1340 N.3   130  TYR130     -0.1227
     37  CA        69.0030   64.5890  169.1750 C.3   130  TYR130      0.1736
     38  C         69.7110   64.4540  170.5420 C.2   130  TYR130      0.2595
     39  O         69.0520   64.5230  171.5760 O.2   130  TYR130     -0.2718
     40  CB        68.5350   63.2280  168.6640 C.3   130  TYR130      0.0548
     41  CG        67.4650   62.5710  169.5130 C.ar  130  TYR130     -0.0200
     42  CD1       67.8090   61.5730  170.4810 C.ar  130  TYR130     -0.0009
     43  CD2       66.0890   62.9180  169.3500 C.ar  130  TYR130     -0.0009
     44  CE1       66.7830   60.9020  171.2600 C.ar  130  TYR130      0.0417
     45  CE2       65.0560   62.2710  170.1340 C.ar  130  TYR130      0.0417
     46  CZ        65.4190   61.2660  171.0730 C.ar  130  TYR130      0.1957
     47  OH        64.4350   60.6590  171.8220 O.3   130  TYR130     -0.2866
     48  N         71.0340   64.2570  170.5040 N.am  131  VAL131     -0.1980
     49  CA        71.9670   64.3790  171.6440 C.3   131  VAL131      0.1595
     50  C         71.8650   65.7260  172.3980 C.2   131  VAL131      0.2287
     51  O         71.9120   65.7450  173.6370 O.2   131  VAL131     -0.2864
     52  CB        73.4580   64.0490  171.2060 C.3   131  VAL131      0.0276
     53  CG1       74.4450   64.0570  172.3960 C.3   131  VAL131      0.0022
     54  CG2       73.5330   62.6870  170.4930 C.3   131  VAL131      0.0022
     55  N         67.5040   59.7160  176.6440 N.3   137  MET137     -0.1230
     56  CA        67.5920   59.0810  175.3190 C.3   137  MET137      0.1702
     57  C         68.6690   59.6890  174.4500 C.2   137  MET137      0.2593
     58  O         69.3860   58.9560  173.7750 O.2   137  MET137     -0.2718
     59  CB        66.2400   59.0570  174.5940 C.3   137  MET137      0.0401
     60  CG        65.2680   57.9670  175.0560 C.3   137  MET137      0.0596
     61  SD        65.9540   56.3120  175.4780 S.3   137  MET137     -0.1393
     62  CE        66.4910   55.7250  173.9680 C.3   137  MET137      0.0692
     63  N         68.8270   61.0150  174.5600 N.am  138  SER138     -0.1952
     64  CA        69.9860   61.7760  174.0740 C.3   138  SER138      0.1924
     65  C         71.3310   61.1210  174.4330 C.2   138  SER138      0.2314
     66  O         71.9660   60.5720  173.5200 O.2   138  SER138     -0.2863
     67  CB        69.9140   63.2230  174.5530 C.3   138  SER138      0.2116
     68  OG        68.7550   63.8680  174.0590 O.3   138  SER138     -0.2180
     69  N         71.3160   56.9360  173.5690 N.3   141  GLY141     -0.1210
     70  CA        71.4010   57.0180  172.1200 C.3   141  GLY141      0.1956
     71  C         72.7700   57.4400  171.6000 C.2   141  GLY141      0.2611
     72  O         73.3390   56.7140  170.7640 O.2   141  GLY141     -0.2717
     73  N         73.3340   58.5190  172.1760 N.am  142  ALA142     -0.1979
     74  CA        74.7460   58.9070  171.9720 C.3   142  ALA142      0.1597
     75  C         75.7430   57.7840  172.2780 C.2   142  ALA142      0.2287
     76  O         76.5710   57.4830  171.4310 O.2   142  ALA142     -0.2864
     77  CB        75.1010   60.1510  172.7520 C.3   142  ALA142      0.0319
     78  N         75.1400   54.3320  172.4240 N.3   144  VAL144     -0.1231
     79  CA        74.9350   53.1480  171.5710 C.3   144  VAL144      0.1692
     80  C         75.5250   53.3380  170.1540 C.2   144  VAL144      0.2591
     81  O         76.3400   52.5000  169.7130 O.2   144  VAL144     -0.2718
     82  CB        73.4290   52.6750  171.5890 C.3   144  VAL144      0.0266
     83  CG1       73.0670   51.7690  170.3780 C.3   144  VAL144      0.0020
     84  CG2       73.1210   51.9300  172.9040 C.3   144  VAL144      0.0020
     85  N         75.1920   54.4840  169.5270 N.am  145  ILE145     -0.1980
     86  CA        75.6370   54.8600  168.1620 C.3   145  ILE145      0.1595
     87  C         77.1470   55.0620  168.0690 C.2   145  ILE145      0.2287
     88  O         77.7670   54.6210  167.0930 O.2   145  ILE145     -0.2864
     89  CB        74.8230   56.1350  167.5900 C.3   145  ILE145      0.0276
     90  CG1       73.2960   55.8940  167.4880 C.3   145  ILE145      0.0022
     91  CG2       75.4050   56.7070  166.2320 C.3   145  ILE145      0.0022
     92  CD1       72.8300   54.6790  166.6610 C.3   145  ILE145      0.0001
     93  N         65.1270   51.4500  176.0150 N.3   267  ILE267     -0.1231
     94  CA        66.0120   51.9950  174.9450 C.3   267  ILE267      0.1692
     95  C         65.5600   51.6850  173.5020 C.2   267  ILE267      0.2592
     96  O         65.6030   50.5250  173.0550 O.2   267  ILE267     -0.2718
     97  CB        67.5810   51.8000  175.2770 C.3   267  ILE267      0.0266
     98  CG1       68.0910   52.9990  176.0650 C.3   267  ILE267      0.0019
     99  CG2       68.5040   51.5620  174.0400 C.3   267  ILE267      0.0020
    100  CD1       68.9570   52.6290  177.2580 C.3   267  ILE267      0.0001
    101  N         64.9300   52.6940  172.8910 N.am  268  LYS268     -0.1966
    102  CA        64.5120   52.6540  171.4840 C.3   268  LYS268      0.1713
    103  C         64.8510   53.9400  170.6990 C.2   268  LYS268      0.2458
    104  O         64.6500   55.0440  171.2330 O.2   268  LYS268     -0.2730
    105  CB        63.0260   52.2330  171.3210 C.3   268  LYS268      0.0311
    106  CG        61.9500   53.1750  171.9320 C.3   268  LYS268      0.0038
    107  CD        60.9610   53.6490  170.8650 C.3   268  LYS268      0.0206
    108  CE        59.5650   53.0610  171.0890 C.3   268  LYS268      0.1093
    109  NZ        58.9010   52.7050  169.8000 N.3   268  LYS268     -0.1314
    110  N         65.3310   53.8070  169.4400 N.am  269  PRO269     -0.2716
    111  CA        65.3830   54.9500  168.5010 C.3   269  PRO269      0.1536
    112  C         64.0390   55.6430  168.2190 C.2   269  PRO269      0.2598
    113  O         62.9550   55.0530  168.4420 O.2   269  PRO269     -0.2715
    114  CB        65.9450   54.3200  167.2210 C.3   269  PRO269      0.0310
    115  CG        66.8170   53.2440  167.7180 C.3   269  PRO269      0.0237
    116  CD        66.0340   52.6320  168.8660 C.3   269  PRO269      0.0939
    117  N         64.1330   56.9190  167.8100 N.am  270  GLU270     -0.1978
    118  CA        63.1550   57.5860  166.9180 C.3   270  GLU270      0.1602
    119  C         62.7750   56.6870  165.7300 C.2   270  GLU270      0.2287
    120  O         63.6550   56.0120  165.1680 O.2   270  GLU270     -0.2864
    121  CB        63.7320   58.9170  166.3760 C.3   270  GLU270      0.0415
    122  CG        63.9650   60.0250  167.3960 C.3   270  GLU270      0.1163
    123  CD        62.6830   60.5990  167.9780 C.2   270  GLU270      0.3649
    124  OE1       62.4150   60.3530  169.1750 O.co2 270  GLU270     -0.2457
    125  OE2       61.9560   61.3180  167.2580 O.co2 270  GLU270     -0.2457
    126  N         62.3490   56.5280  162.5280 N.3   272  TYR272     -0.1227
    127  CA        63.0700   56.4610  161.2560 C.3   272  TYR272      0.1736
    128  C         64.3910   55.6790  161.3100 C.2   272  TYR272      0.2595
    129  O         65.0520   55.4690  160.2670 O.2   272  TYR272     -0.2718
    130  CB        63.2770   57.8660  160.6670 C.3   272  TYR272      0.0548
    131  CG        63.9520   58.8720  161.5900 C.ar  272  TYR272     -0.0200
    132  CD1       63.1870   59.8380  162.2890 C.ar  272  TYR272     -0.0009
    133  CD2       65.3690   58.9240  161.7040 C.ar  272  TYR272     -0.0009
    134  CE1       63.8140   60.7920  163.1460 C.ar  272  TYR272      0.0417
    135  CE2       66.0020   59.8570  162.5580 C.ar  272  TYR272      0.0417
    136  CZ        65.2200   60.7870  163.2620 C.ar  272  TYR272      0.1957
    137  OH        65.8410   61.6970  164.0610 O.3   272  TYR272     -0.2866
    138  N         64.7880   55.2810  162.5160 N.am  273  PHE273     -0.1976
    139  CA        65.9770   54.4680  162.6970 C.3   273  PHE273      0.1639
    140  C         65.7190   53.0170  163.1360 C.2   273  PHE273      0.2290
    141  O         66.6530   52.1950  163.1630 O.2   273  PHE273     -0.2864
    142  CB        67.0160   55.2110  163.5590 C.3   273  PHE273      0.0560
    143  CG        68.4050   54.6510  163.4600 C.ar  273  PHE273     -0.0200
    144  CD1       69.0020   54.0510  164.6000 C.ar  273  PHE273     -0.0042
    145  CD2       69.0870   54.5920  162.2070 C.ar  273  PHE273     -0.0042
    146  CE1       70.2670   53.3870  164.5040 C.ar  273  PHE273     -0.0003
    147  CE2       70.3850   54.0120  162.1120 C.ar  273  PHE273     -0.0003
    148  CZ        70.9720   53.3920  163.2720 C.ar  273  PHE273     -0.0000
    149  N         68.1590   49.5220  163.3530 N.3   277  TYR277     -0.1241
    150  CA        68.2660   49.0040  164.7270 C.3   277  TYR277      0.1605
    151  C         67.8500   47.5530  164.8810 C.2   277  TYR277      0.2264
    152  O         68.6040   46.7760  165.4820 O.2   277  TYR277     -0.2867
    153  CB        67.5090   49.8960  165.7230 C.3   277  TYR277      0.0534
    154  CG        67.9320   49.7230  167.1800 C.ar  277  TYR277     -0.0201
    155  CD1       69.1830   50.2310  167.6550 C.ar  277  TYR277     -0.0009
    156  CD2       67.0420   49.1370  168.1230 C.ar  277  TYR277     -0.0009
    157  CE1       69.5670   50.0690  169.0330 C.ar  277  TYR277      0.0417
    158  CE2       67.3990   49.0110  169.4990 C.ar  277  TYR277      0.0417
    159  CZ        68.6580   49.4650  169.9390 C.ar  277  TYR277      0.1957
    160  OH        68.9870   49.3430  171.2650 O.3   277  TYR277     -0.2866
@<TRIPOS>BOND
     1     4     3    2
     2     3     2    1
     3     2     1    1
     4     2     5    1
     5    18    17    1
     6    18    19    1
     7     8    10   ar
     8     8     6   ar
     9    12    13    1
    10    17    16    1
    11     5     6    1
    12    10    11   ar
    13     6     7   ar
    14    16    13    1
    15    11     9   ar
    16    13    14    1
    17     7     9   ar
    18   129   128    2
    19    14    15    2
    20   130   127    1
    21   130   131    1
    22   127   128    1
    23   127   126    1
    24   128   138   am
    25   131   133   ar
    26   131   132   ar
    27   133   135   ar
    28   147   145   ar
    29   147   148   ar
    30    20    21    1
    31   145   143   ar
    32   132   134   ar
    33    24    21    1
    34   138   139    1
    35   135   136   ar
    36   139   140    1
    37   139   142    1
    38    21    22    1
    39   140   141    2
    40   134   136   ar
    41   136   137    1
    42   148   146   ar
    43   149   150    1
    44   143   142    1
    45   143   144   ar
    46    25    22   am
    47    25    26    1
    48    22    23    2
    49   146   144   ar
    50   150   151    1
    51   150   153    1
    52   151   152    2
    53    29    26    1
    54    29    30    1
    55   120   119    2
    56    26    27    1
    57   153   154    1
    58   119   118    1
    59    31    30   ar
    60    31    33   ar
    61    30    32   ar
    62    91    89    1
    63    27    28    2
    64   121   118    1
    65   121   122    1
    66    92    90    1
    67    33    35   ar
    68   118   117    1
    69    88    87    2
    70   154   155   ar
    71   154   156   ar
    72   114   115    1
    73   114   111    1
    74    32    34   ar
    75   125   123   ar
    76   122   123    1
    77    90    89    1
    78    89    86    1
    79   155   157   ar
    80   115   116    1
    81   117   112   am
    82   123   124   ar
    83    87    86    1
    84    35    34   ar
    85   156   158   ar
    86    36    37    1
    87    86    85    1
    88   112   113    2
    89   112   111    1
    90   111   110    1
    91    40    37    1
    92    40    41    1
    93   116   110    1
    94   157   159   ar
    95    37    38    1
    96    43    41   ar
    97    43    45   ar
    98   110   103   am
    99   158   159   ar
   100    41    42   ar
   101    85    80   am
   102    81    80    2
   103   109   108    1
   104   159   160    1
   105    45    46   ar
   106    80    79    1
   107    83    82    1
   108    42    44   ar
   109    54    52    1
   110    48    38   am
   111    48    49    1
   112    38    39    2
   113   103   104    2
   114   103   102    1
   115    72    71    2
   116   107   108    1
   117   107   106    1
   118    46    44   ar
   119    46    47    1
   120    52    49    1
   121    52    53    1
   122   105   102    1
   123   105   106    1
   124    76    75    2
   125   102   101    1
   126    79    82    1
   127    79    78    1
   128    82    84    1
   129    71    70    1
   130    71    73   am
   131    49    50    1
   132    74    73    1
   133    74    75    1
   134    74    77    1
   135    70    69    1
   136    50    51    2
   137   101    95   am
   138    96    95    2
   139    95    94    1
   140    66    65    2
   141    58    57    2
   142    62    61    1
   143    99    97    1
   144    68    67    1
   145    64    65    1
   146    64    67    1
   147    64    63    1
   148    57    63   am
   149    57    56    1
   150    59    60    1
   151    59    56    1
   152    94    97    1
   153    94    93    1
   154    60    61    1
   155    97    98    1
   156    56    55    1
   157    98   100    1
