@<TRIPOS>MOLECULE
tmp/2fyyA00.pdb
 165 161 0 0 0
SMALL
GASTEIGER

@<TRIPOS>ATOM
      1  N         11.1940   19.0240   26.4670 N.3     5  MET5       -0.1245
      2  CA        11.5920   17.7580   25.8690 C.3     5  MET5        0.1570
      3  C         13.0040   17.4330   26.3210 C.2     5  MET5        0.2261
      4  O         13.8620   18.3170   26.3810 O.2     5  MET5       -0.2867
      5  CB        11.5140   17.8000   24.3410 C.3     5  MET5        0.0387
      6  CG        11.8610   16.4630   23.6830 C.3     5  MET5        0.0595
      7  SD        11.4320   16.3490   21.9390 S.3     5  MET5       -0.1393
      8  CE        12.6220   17.4690   21.2080 C.3     5  MET5        0.0692
      9  N         16.1430   14.2140   26.1290 N.3     7  TYR7       -0.1241
     10  CA        16.7210   12.9090   25.8430 C.3     7  TYR7        0.1605
     11  C         17.7540   12.5720   26.9020 C.2     7  TYR7        0.2264
     12  O         18.5250   13.4380   27.3230 O.2     7  TYR7       -0.2867
     13  CB        17.3250   12.8650   24.4370 C.3     7  TYR7        0.0534
     14  CG        16.2660   12.7830   23.3660 C.ar    7  TYR7       -0.0201
     15  CD1       15.7400   13.9380   22.7880 C.ar    7  TYR7       -0.0009
     16  CD2       15.7640   11.5490   22.9540 C.ar    7  TYR7       -0.0009
     17  CE1       14.7530   13.8680   21.8180 C.ar    7  TYR7        0.0417
     18  CE2       14.7750   11.4660   21.9830 C.ar    7  TYR7        0.0417
     19  CZ        14.2720   12.6300   21.4190 C.ar    7  TYR7        0.1957
     20  OH        13.2900   12.5580   20.4610 O.3     7  TYR7       -0.2866
     21  N         20.7280    9.8200   27.6570 N.3     9  TYR9       -0.1241
     22  CA        21.6090    8.7630   27.1680 C.3     9  TYR9        0.1605
     23  C         22.4300    8.1770   28.3060 C.2     9  TYR9        0.2264
     24  O         22.9990    8.9180   29.1100 O.2     9  TYR9       -0.2867
     25  CB        22.5910    9.2910   26.1140 C.3     9  TYR9        0.0534
     26  CG        22.0130    9.8650   24.8350 C.ar    9  TYR9       -0.0201
     27  CD1       20.6650    9.7190   24.5020 C.ar    9  TYR9       -0.0009
     28  CD2       22.8460   10.5210   23.9270 C.ar    9  TYR9       -0.0009
     29  CE1       20.1580   10.2440   23.3130 C.ar    9  TYR9        0.0417
     30  CE2       22.3540   11.0420   22.7420 C.ar    9  TYR9        0.0417
     31  CZ        21.0110   10.9000   22.4390 C.ar    9  TYR9        0.1957
     32  OH        20.5270   11.4170   21.2590 O.3     9  TYR9       -0.2866
     33  N         10.9910    8.6320   10.1480 N.3    59  TYR59      -0.1241
     34  CA        11.2330    9.0690   11.5240 C.3    59  TYR59       0.1605
     35  C         11.9500    7.9790   12.3220 C.2    59  TYR59       0.2264
     36  O         12.9710    8.2370   12.9640 O.2    59  TYR59      -0.2867
     37  CB         9.9050    9.4360   12.1980 C.3    59  TYR59       0.0534
     38  CG        10.0010    9.8490   13.6550 C.ar   59  TYR59      -0.0201
     39  CD1       10.1470   11.1880   14.0100 C.ar   59  TYR59      -0.0009
     40  CD2        9.9170    8.9010   14.6790 C.ar   59  TYR59      -0.0009
     41  CE1       10.2240   11.5760   15.3460 C.ar   59  TYR59       0.0417
     42  CE2        9.9950    9.2770   16.0180 C.ar   59  TYR59       0.0417
     43  CZ        10.1480   10.6150   16.3420 C.ar   59  TYR59       0.1957
     44  OH        10.2210   10.9920   17.6620 O.3    59  TYR59      -0.2866
     45  N         15.5320    7.1920   10.8990 N.3    62  ARG62      -0.1231
     46  CA        16.4730    8.2570   11.2520 C.3    62  ARG62       0.1694
     47  C         16.8670    8.1970   12.7280 C.2    62  ARG62       0.2592
     48  O         18.0480    8.3090   13.0600 O.2    62  ARG62      -0.2718
     49  CB        15.9030    9.6360   10.8840 C.3    62  ARG62       0.0321
     50  CG        16.7990   10.8320   11.2210 C.3    62  ARG62       0.0489
     51  CD        18.1490   10.7740   10.5120 C.3    62  ARG62       0.2205
     52  NE        18.9720   11.9420   10.8250 N.pl3  62  ARG62      -0.0865
     53  CZ        20.3020   11.9550   10.8210 C.cat  62  ARG62       0.5346
     54  NH1       20.9890   10.8580   10.5260 N.pl3  62  ARG62       0.1354
     55  NH2       20.9500   13.0720   11.1230 N.pl3  62  ARG62       0.1354
     56  N         15.8760    8.0140   13.6010 N.am   63  ASN63      -0.1974
     57  CA        16.1250    7.8090   15.0290 C.3    63  ASN63       0.1688
     58  C         17.0810    6.6450   15.2740 C.2    63  ASN63       0.2292
     59  O         18.0640    6.7820   16.0040 O.2    63  ASN63      -0.2864
     60  CB        14.8140    7.5640   15.7780 C.3    63  ASN63       0.1181
     61  CG        14.1800    8.8390   16.2930 C.2    63  ASN63       0.2629
     62  OD1       14.1220    9.0660   17.5020 O.2    63  ASN63      -0.2716
     63  ND2       13.7010    9.6790   15.3810 N.am   63  ASN63      -0.0877
     64  N         20.6060    7.3910   14.1700 N.3    66  ILE66      -0.1231
     65  CA        21.2500    8.2690   15.1460 C.3    66  ILE66       0.1692
     66  C         21.7350    7.4960   16.3740 C.2    66  ILE66       0.2592
     67  O         22.8880    7.6440   16.7870 O.2    66  ILE66      -0.2718
     68  CB        20.3210    9.4510   15.5550 C.3    66  ILE66       0.0266
     69  CG1       20.2040   10.4510   14.3980 C.3    66  ILE66       0.0019
     70  CG2       20.8370   10.1560   16.8140 C.3    66  ILE66       0.0020
     71  CD1       19.0510   11.4370   14.5270 C.3    66  ILE66       0.0001
     72  N         20.8640    6.6650   16.9430 N.am   67  PHE67      -0.1976
     73  CA        21.2090    5.9240   18.1550 C.3    67  PHE67       0.1639
     74  C         22.2320    4.8130   17.9160 C.2    67  PHE67       0.2290
     75  O         23.0540    4.5310   18.7900 O.2    67  PHE67      -0.2864
     76  CB        19.9580    5.3920   18.8600 C.3    67  PHE67       0.0560
     77  CG        19.0100    6.4720   19.3200 C.ar   67  PHE67      -0.0200
     78  CD1       19.4850    7.6010   19.9890 C.ar   67  PHE67      -0.0042
     79  CD2       17.6420    6.3500   19.1030 C.ar   67  PHE67      -0.0042
     80  CE1       18.6120    8.6010   20.4190 C.ar   67  PHE67      -0.0003
     81  CE2       16.7590    7.3420   19.5290 C.ar   67  PHE67      -0.0003
     82  CZ        17.2470    8.4700   20.1900 C.ar   67  PHE67      -0.0000
     83  N         25.4300    6.6930   17.7300 N.3    70  ASN70      -0.1240
     84  CA        25.7810    7.0610   19.1000 C.3    70  ASN70       0.1653
     85  C         26.3230    5.8870   19.9080 C.2    70  ASN70       0.2266
     86  O         27.2340    6.0550   20.7180 O.2    70  ASN70      -0.2867
     87  CB        24.5860    7.6980   19.8150 C.3    70  ASN70       0.1155
     88  CG        24.1890    9.0420   19.2200 C.2    70  ASN70       0.2627
     89  OD1       23.1170    9.5650   19.5190 O.2    70  ASN70      -0.2716
     90  ND2       25.0480    9.6030   18.3740 N.am   70  ASN70      -0.0877
     91  N         19.9840   16.2150   27.3530 N.3    99  TYR99      -0.1241
     92  CA        19.8100   17.4370   26.5630 C.3    99  TYR99       0.1605
     93  C         18.3600   17.6720   26.1710 C.2    99  TYR99       0.2264
     94  O         17.5520   16.7440   26.1590 O.2    99  TYR99      -0.2867
     95  CB        20.7160   17.4420   25.3170 C.3    99  TYR99       0.0534
     96  CG        20.3170   16.4650   24.2290 C.ar   99  TYR99      -0.0201
     97  CD1       20.8400   15.1740   24.2020 C.ar   99  TYR99      -0.0009
     98  CD2       19.4270   16.8400   23.2190 C.ar   99  TYR99      -0.0009
     99  CE1       20.4800   14.2730   23.2000 C.ar   99  TYR99       0.0417
    100  CE2       19.0600   15.9470   22.2160 C.ar   99  TYR99       0.0417
    101  CZ        19.5930   14.6690   22.2150 C.ar   99  TYR99       0.1957
    102  OH        19.2370   13.7840   21.2300 O.3    99  TYR99      -0.2866
    103  N         26.2210   23.7010   16.5800 N.3   155  GLN155     -0.1231
    104  CA        25.2930   22.6840   16.0790 C.3   155  GLN155      0.1698
    105  C         24.1650   22.4130   17.0730 C.2   155  GLN155      0.2592
    106  O         23.0100   22.2330   16.6810 O.2   155  GLN155     -0.2718
    107  CB        26.0330   21.3850   15.7530 C.3   155  GLN155      0.0381
    108  CG        26.9390   21.4680   14.5310 C.3   155  GLN155      0.0905
    109  CD        27.6100   20.1460   14.2070 C.2   155  GLN155      0.2608
    110  OE1       26.9480   19.1170   14.0530 O.2   155  GLN155     -0.2717
    111  NE2       28.9320   20.1670   14.1000 N.am  155  GLN155     -0.0878
    112  N         24.5100   22.3940   18.3570 N.am  156  LEU156     -0.1980
    113  CA        23.5220   22.1970   19.4130 C.3   156  LEU156      0.1596
    114  C         22.5830   23.3910   19.5280 C.2   156  LEU156      0.2287
    115  O         21.3770   23.2160   19.6770 O.2   156  LEU156     -0.2864
    116  CB        24.1970   21.9060   20.7550 C.3   156  LEU156      0.0297
    117  CG        24.9740   20.5910   20.8660 C.3   156  LEU156      0.0022
    118  CD1       25.8080   20.6080   22.1250 C.3   156  LEU156      0.0001
    119  CD2       24.0600   19.3730   20.8280 C.3   156  LEU156      0.0001
    120  N         20.0390   23.1780   16.8070 N.3   159  TYR159     -0.1241
    121  CA        19.0570   22.1540   17.1580 C.3   159  TYR159      0.1605
    122  C         18.0900   22.6370   18.2380 C.2   159  TYR159      0.2264
    123  O         16.8730   22.5320   18.0750 O.2   159  TYR159     -0.2867
    124  CB        19.7590   20.8670   17.6090 C.3   159  TYR159      0.0534
    125  CG        18.8430   19.8580   18.2780 C.ar  159  TYR159     -0.0201
    126  CD1       18.0290   19.0140   17.5210 C.ar  159  TYR159     -0.0009
    127  CD2       18.7940   19.7470   19.6710 C.ar  159  TYR159     -0.0009
    128  CE1       17.1860   18.0870   18.1340 C.ar  159  TYR159      0.0417
    129  CE2       17.9550   18.8280   20.2910 C.ar  159  TYR159      0.0417
    130  CZ        17.1580   18.0010   19.5190 C.ar  159  TYR159      0.1957
    131  OH        16.3340   17.0900   20.1350 O.3   159  TYR159     -0.2866
    132  N         14.9050   22.6290   15.6120 N.3   163  LEU163     -0.1245
    133  CA        14.2440   21.3210   15.5590 C.3   163  LEU163      0.1561
    134  C         13.6920   20.8370   16.9040 C.2   163  LEU163      0.2260
    135  O         12.6090   20.2510   16.9480 O.2   163  LEU163     -0.2867
    136  CB        15.1670   20.2610   14.9370 C.3   163  LEU163      0.0270
    137  CG        15.4580   20.3410   13.4310 C.3   163  LEU163      0.0019
    138  CD1       16.5410   19.3460   13.0430 C.3   163  LEU163      0.0001
    139  CD2       14.2010   20.1300   12.5860 C.3   163  LEU163      0.0001
    140  N          9.8040   20.0260   17.0440 N.3   167  TRP167     -0.1241
    141  CA         9.3370   18.6820   17.3690 C.3   167  TRP167      0.1605
    142  C          8.5360   18.6440   18.6680 C.2   167  TRP167      0.2264
    143  O          7.4970   17.9850   18.7320 O.2   167  TRP167     -0.2867
    144  CB        10.5000   17.6890   17.4140 C.3   167  TRP167      0.0550
    145  CG        10.9310   17.2250   16.0550 C.ar  167  TRP167      0.0003
    146  CD1       12.0500   17.6090   15.3720 C.ar  167  TRP167      0.0946
    147  CD2       10.2470   16.2890   15.2100 C.ar  167  TRP167      0.0152
    148  NE1       12.1070   16.9690   14.1550 N.ar  167  TRP167     -0.2442
    149  CE2       11.0140   16.1530   14.0310 C.ar  167  TRP167      0.0810
    150  CE3        9.0640   15.5490   15.3370 C.ar  167  TRP167      0.0012
    151  CZ2       10.6350   15.3080   12.9810 C.ar  167  TRP167      0.0191
    152  CZ3        8.6860   14.7080   14.2920 C.ar  167  TRP167      0.0001
    153  CH2        9.4710   14.5960   13.1300 C.ar  167  TRP167      0.0015
    154  N          4.7310   17.2760   19.0910 N.3   171  TYR171     -0.1241
    155  CA         4.3400   16.2450   20.0510 C.3   171  TYR171      0.1605
    156  C          3.2400   16.7390   20.9830 C.2   171  TYR171      0.2264
    157  O          2.3010   16.0020   21.2910 O.2   171  TYR171     -0.2867
    158  CB         5.5390   15.7760   20.8800 C.3   171  TYR171      0.0534
    159  CG         6.6960   15.2090   20.0840 C.ar  171  TYR171     -0.0201
    160  CD1        6.4850   14.5010   18.8990 C.ar  171  TYR171     -0.0009
    161  CD2        8.0040   15.3590   20.5360 C.ar  171  TYR171     -0.0009
    162  CE1        7.5520   13.9830   18.1750 C.ar  171  TYR171      0.0417
    163  CE2        9.0760   14.8380   19.8220 C.ar  171  TYR171      0.0417
    164  CZ         8.8430   14.1510   18.6470 C.ar  171  TYR171      0.1957
    165  OH         9.9090   13.6390   17.9470 O.3   171  TYR171     -0.2866
@<TRIPOS>BOND
     1    33    34    1
     2    51    52    1
     3    51    50    1
     4    54    53    1
     5    53    52    2
     6    53    55    1
     7    49    50    1
     8    49    46    1
     9    45    46    1
    10    46    47    1
    11    34    37    1
    12    34    35    1
    13    37    38    1
    14    35    36    2
    15   139   137    1
    16    47    48    2
    17    47    56   am
    18   151   153   ar
    19   151   149   ar
    20   138   137    1
    21   153   152   ar
    22   137   136    1
    23    56    57    1
    24    38    39   ar
    25    38    40   ar
    26    39    41   ar
    27   149   148   ar
    28   149   147   ar
    29   110   109    2
    30   111   109   am
    31   148   146   ar
    32    64    65    1
    33   109   108    1
    34   152   150   ar
    35    69    71    1
    36    69    68    1
    37   108   107    1
    38    40    42   ar
    39   136   133    1
    40    57    58    1
    41    57    60    1
    42    65    68    1
    43    65    66    1
    44   147   150   ar
    45   147   145   ar
    46    58    59    2
    47    41    43   ar
    48   146   145   ar
    49    63    61   am
    50    68    70    1
    51   133   132    1
    52   133   134    1
    53   107   104    1
    54    60    61    1
    55    42    43   ar
    56   145   144    1
    57   104   103    1
    58   104   105    1
    59    61    62    2
    60    43    44    1
    61    66    67    2
    62    66    72   am
    63   106   105    2
    64   120   121    1
    65   134   135    2
    66    72    73    1
    67   140   141    1
    68   105   112   am
    69   121   124    1
    70   121   122    1
    71   141   144    1
    72   141   142    1
    73   126   128   ar
    74   126   125   ar
    75   124   125    1
    76    83    84    1
    77    74    73    1
    78    74    75    2
    79   165   164    1
    80   123   122    2
    81   128   130   ar
    82    73    76    1
    83   162   164   ar
    84   162   160   ar
    85   125   127   ar
    86   112   113    1
    87    90    88   am
    88   164   163   ar
    89   142   143    2
    90    76    77    1
    91   160   159   ar
    92   154   155    1
    93    84    87    1
    94    84    85    1
    95    79    77   ar
    96    79    81   ar
    97    88    89    2
    98    88    87    1
    99    77    78   ar
   100   113   114    1
   101   113   116    1
   102   130   131    1
   103   130   129   ar
   104   114   115    2
   105    81    82   ar
   106   127   129   ar
   107   163   161   ar
   108    85    86    2
   109    78    80   ar
   110   155   158    1
   111   155   156    1
   112   159   161   ar
   113   159   158    1
   114    82    80   ar
   115    20    19    1
   116   116   117    1
   117   119   117    1
   118   117   118    1
   119   156   157    2
   120     8     7    1
   121   102   101    1
   122    32    31    1
   123    19    17   ar
   124    19    18   ar
   125    17    15   ar
   126     7     6    1
   127    18    16   ar
   128   101   100   ar
   129   101    99   ar
   130   100    98   ar
   131    31    30   ar
   132    31    29   ar
   133    30    28   ar
   134    15    14   ar
   135    16    14   ar
   136    99    97   ar
   137    98    96   ar
   138    29    27   ar
   139    14    13    1
   140     6     5    1
   141    28    26   ar
   142    97    96   ar
   143    96    95    1
   144     5     2    1
   145    13    10    1
   146    27    26   ar
   147    26    25    1
   148    95    92    1
   149    10     9    1
   150    10    11    1
   151     2     3    1
   152     2     1    1
   153    25    22    1
   154    94    93    2
   155    93    92    1
   156     3     4    2
   157    92    91    1
   158    11    12    2
   159    22    21    1
   160    22    23    1
   161    23    24    2
