@<TRIPOS>MOLECULE
tmp/2fz5A00.pdb
 121 121 0 0 0
SMALL
GASTEIGER

@<TRIPOS>ATOM
      1  N          3.8920  -37.6420   15.3150 N.3     7  TRP7       -0.1241
      2  CA         5.2270  -37.1270   15.6800 C.3     7  TRP7        0.1605
      3  C          5.3750  -35.7250   15.0850 C.2     7  TRP7        0.2264
      4  O          5.3030  -35.5440   13.8640 O.2     7  TRP7       -0.2867
      5  CB         6.3050  -38.0490   15.1140 C.3     7  TRP7        0.0550
      6  CG         7.6750  -37.7290   15.7180 C.ar    7  TRP7        0.0003
      7  CD1        8.1490  -38.2500   16.8370 C.ar    7  TRP7        0.0946
      8  CD2        8.6080  -36.8090   15.2450 C.ar    7  TRP7        0.0152
      9  NE1        9.3400  -37.7210   17.1120 N.ar    7  TRP7       -0.2442
     10  CE2        9.6620  -36.8290   16.1870 C.ar    7  TRP7        0.0810
     11  CE3        8.6520  -35.9450   14.1290 C.ar    7  TRP7        0.0012
     12  CZ2       10.7800  -35.9910   16.0260 C.ar    7  TRP7        0.0191
     13  CZ3        9.7790  -35.1050   13.9640 C.ar    7  TRP7        0.0001
     14  CH2       10.8300  -35.1310   14.8990 C.ar    7  TRP7        0.0015
     15  N          7.6560  -32.2450   15.0900 N.3     9  GLY9       -0.1210
     16  CA         8.8720  -31.4470   15.3410 C.3     9  GLY9        0.1956
     17  C          8.5270  -29.9530   15.4590 C.2     9  GLY9        0.2612
     18  O          8.5560  -29.3770   16.5400 O.2     9  GLY9       -0.2717
     19  N          8.0310  -29.4090   14.3530 N.am   10  THR10      -0.1952
     20  CA         7.7690  -27.9570   14.2350 C.3    10  THR10       0.1897
     21  C          6.2730  -27.6160   14.1020 C.2    10  THR10       0.2313
     22  O          5.8640  -26.9530   13.1520 O.2    10  THR10      -0.2863
     23  CB         8.5870  -27.3750   13.0710 C.3    10  THR10       0.1794
     24  OG1        8.4190  -28.1900   11.9010 O.3    10  THR10      -0.2208
     25  CG2       10.0600  -27.1790   13.4390 C.3    10  THR10       0.0378
     26  N          3.7130  -28.7090   12.8230 N.3    12  ASN12      -0.1240
     27  CA         3.1160  -29.1600   11.5360 C.3    12  ASN12       0.1653
     28  C          2.1100  -30.3170   11.6260 C.2    12  ASN12       0.2266
     29  O          0.9100  -30.1340   11.4310 O.2    12  ASN12      -0.2867
     30  CB         4.2850  -29.4330   10.5700 C.3    12  ASN12       0.1155
     31  CG         5.2840  -30.4700   11.0790 C.2    12  ASN12       0.2627
     32  OD1        6.0470  -30.2640   12.0370 O.2    12  ASN12      -0.2716
     33  ND2        5.2290  -31.6520   10.5440 N.am   12  ASN12      -0.0877
     34  N          6.5280  -36.5660    9.4950 N.3    55  PRO55      -0.2102
     35  CA         7.1080  -35.7280    8.4410 C.3    55  PRO55       0.1504
     36  C          8.3310  -36.3710    7.7780 C.2    55  PRO55       0.2576
     37  O          8.8410  -37.3980    8.2390 O.2    55  PRO55      -0.2718
     38  CB         7.4530  -34.3830    9.0990 C.3    55  PRO55       0.0282
     39  CG         7.4100  -34.6160   10.6040 C.3    55  PRO55       0.0208
     40  CD         6.6750  -35.9400   10.8230 C.3    55  PRO55       0.0893
     41  N          8.6840  -35.8060    6.6240 N.am   56  ALA56      -0.1966
     42  CA         9.8360  -36.2390    5.8150 C.3    56  ALA56       0.1728
     43  C         11.1470  -35.7620    6.4240 C.2    56  ALA56       0.2616
     44  O         11.3650  -34.5450    6.6470 O.2    56  ALA56      -0.2715
     45  CB         9.7000  -35.7210    4.3900 C.3    56  ALA56       0.0334
     46  N         11.9780  -36.7270    6.6910 N.am   57  MET57      -0.1963
     47  CA        13.2840  -36.5460    7.3270 C.3    57  MET57       0.1736
     48  C         14.4640  -37.0440    6.4970 C.2    57  MET57       0.2617
     49  O         14.3120  -37.8730    5.5910 O.2    57  MET57      -0.2715
     50  CB        13.2070  -37.3230    8.6200 C.3    57  MET57       0.0427
     51  CG        13.6930  -36.3670    9.6940 C.3    57  MET57       0.0599
     52  SD        13.9010  -37.3060   11.2310 S.3    57  MET57      -0.1393
     53  CE        15.1510  -36.2650   11.9270 C.3    57  MET57       0.0692
     54  N         15.6250  -36.5280    6.8600 N.am   58  GLY58      -0.1940
     55  CA        16.9350  -36.8330    6.2590 C.3    58  GLY58       0.2014
     56  C         16.8920  -36.5840    4.7520 C.2    58  GLY58       0.2640
     57  O         16.6990  -35.4500    4.3050 O.2    58  GLY58      -0.2714
     58  N         16.9860  -37.6780    4.0140 N.am   59  SER59      -0.1935
     59  CA        16.7690  -37.6330    2.5620 C.3    59  SER59       0.2055
     60  C         15.6510  -38.5830    2.1390 C.2    59  SER59       0.2642
     61  O         15.8000  -39.8060    1.9980 O.2    59  SER59      -0.2714
     62  CB        18.0820  -37.8470    1.8120 C.3    59  SER59       0.2130
     63  OG        18.5960  -39.1210    2.1860 O.3    59  SER59      -0.2179
     64  N         14.5020  -37.9410    2.2370 N.am   60  GLU60      -0.1976
     65  CA        13.1460  -38.4610    1.9640 C.3    60  GLU60       0.1602
     66  C         12.8120  -39.7870    2.6580 C.2    60  GLU60       0.2287
     67  O         12.4070  -40.7830    2.0300 O.2    60  GLU60      -0.2864
     68  CB        12.8850  -38.4940    0.4570 C.3    60  GLU60       0.0415
     69  CG        12.1450  -37.2410   -0.0060 C.3    60  GLU60       0.1163
     70  CD        10.6880  -37.2610    0.4470 C.2    60  GLU60       0.3649
     71  OE1        9.8920  -37.9970   -0.1650 O.co2  60  GLU60      -0.2457
     72  OE2       10.4130  -36.5600    1.4460 O.co2  60  GLU60      -0.2457
     73  N          3.9860  -34.1800    6.5960 N.3    88  SER88      -0.1202
     74  CA         4.4280  -32.8730    6.0750 C.3    88  SER88       0.2020
     75  C          5.7890  -33.0400    5.3930 C.2    88  SER88       0.2619
     76  O          6.6730  -33.7580    5.8780 O.2    88  SER88      -0.2717
     77  CB         4.6730  -31.8700    7.1960 C.3    88  SER88       0.2103
     78  OG         3.5640  -31.7770    8.0810 O.3    88  SER88      -0.2182
     79  N          5.9100  -32.3660    4.2690 N.am   89  TYR89      -0.1961
     80  CA         7.1990  -32.2360    3.5690 C.3    89  TYR89       0.1771
     81  C          7.5350  -30.7740    3.2730 C.2    89  TYR89       0.2620
     82  O          6.6650  -29.8960    3.3100 O.2    89  TYR89      -0.2715
     83  CB         7.2420  -33.1050    2.3120 C.3    89  TYR89       0.0574
     84  CG         6.1830  -32.7270    1.2650 C.ar   89  TYR89      -0.0198
     85  CD1        6.4790  -31.7510    0.2870 C.ar   89  TYR89      -0.0009
     86  CD2        4.9290  -33.3800    1.3200 C.ar   89  TYR89      -0.0009
     87  CE1        5.4980  -31.4150   -0.6520 C.ar   89  TYR89       0.0417
     88  CE2        3.9530  -33.0540    0.3620 C.ar   89  TYR89       0.0417
     89  CZ         4.2540  -32.0860   -0.6110 C.ar   89  TYR89       0.1957
     90  OH         3.3770  -31.9160   -1.6290 O.3    89  TYR89      -0.2866
     91  N          8.8200  -30.5560    3.0270 N.am   90  GLY90      -0.1940
     92  CA         9.3550  -29.2530    2.6160 C.3    90  GLY90       0.2014
     93  C          9.5800  -29.2340    1.0910 C.2    90  GLY90       0.2639
     94  O          8.7610  -28.7430    0.3340 O.2    90  GLY90      -0.2714
     95  N         10.6330  -29.9340    0.6930 N.am   91  TRP91      -0.1959
     96  CA        11.1220  -29.8730   -0.7060 C.3    91  TRP91       0.1771
     97  C         10.9840  -31.1050   -1.6210 C.2    91  TRP91       0.2620
     98  O         11.0840  -30.9850   -2.8280 O.2    91  TRP91      -0.2715
     99  CB        12.5830  -29.4010   -0.7370 C.3    91  TRP91       0.0590
    100  CG        13.4810  -30.2770    0.1390 C.ar   91  TRP91       0.0006
    101  CD1       14.1900  -31.3230   -0.2610 C.ar   91  TRP91       0.0946
    102  CD2       13.8860  -29.9440    1.4230 C.ar   91  TRP91       0.0152
    103  NE1       15.0620  -31.6640    0.6890 N.ar   91  TRP91      -0.2442
    104  CE2       14.9290  -30.8520    1.7250 C.ar   91  TRP91       0.0810
    105  CE3       13.5220  -28.9200    2.3200 C.ar   91  TRP91       0.0012
    106  CZ2       15.6440  -30.7230    2.9290 C.ar   91  TRP91       0.0191
    107  CZ3       14.2410  -28.7990    3.5280 C.ar   91  TRP91       0.0001
    108  CH2       15.2910  -29.6910    3.8270 C.ar   91  TRP91       0.0015
    109  N         10.6660  -32.2640   -1.0350 N.am   92  GLY92      -0.1954
    110  CA        10.5930  -33.5300   -1.7770 C.3    92  GLY92       0.1869
    111  C          9.3250  -34.2370   -1.2900 C.2    92  GLY92       0.2309
    112  O          9.1350  -34.4110   -0.1030 O.2    92  GLY92      -0.2863
    113  N          4.4710  -28.3750    4.0820 N.3   119  GLU119     -0.1245
    114  CA         4.7840  -27.8840    5.4210 C.3   119  GLU119      0.1567
    115  C          3.5650  -27.7950    6.3590 C.2   119  GLU119      0.2260
    116  O          3.4020  -28.6150    7.2680 O.2   119  GLU119     -0.2867
    117  CB         5.5440  -26.5700    5.2450 C.3   119  GLU119      0.0388
    118  CG         5.9890  -26.1450    6.6270 C.3   119  GLU119      0.1160
    119  CD         7.4750  -25.8730    6.6800 C.2   119  GLU119      0.3649
    120  OE1        7.8250  -24.7190    6.3750 O.co2 119  GLU119     -0.2457
    121  OE2        8.1830  -26.7810    7.1800 O.co2 119  GLU119     -0.2457
@<TRIPOS>BOND
     1    98    97    2
     2   110   111    1
     3   110   109    1
     4    90    89    1
     5    97   109   am
     6    97    96    1
     7   111   112    2
     8    99    96    1
     9    99   100    1
    10    96    95    1
    11    87    89   ar
    12    87    85   ar
    13    89    88   ar
    14   101   100   ar
    15   101   103   ar
    16    71    70   ar
    17    69    70    1
    18    69    68    1
    19   100   102   ar
    20    85    84   ar
    21    94    93    2
    22    88    86   ar
    23    70    72   ar
    24    68    65    1
    25   103   104   ar
    26    95    93   am
    27    93    92    1
    28    84    86   ar
    29    84    83    1
    30   102   104   ar
    31   102   105   ar
    32   104   106   ar
    33    62    63    1
    34    62    59    1
    35    65    64    1
    36    65    66    1
    37    61    60    2
    38    67    66    2
    39    60    64   am
    40    60    59    1
    41    83    80    1
    42   105   107   ar
    43    59    58    1
    44    92    91    1
    45   106   108   ar
    46    91    81   am
    47    81    82    2
    48    81    80    1
    49   107   108   ar
    50    80    79    1
    51    58    56   am
    52   113   114    1
    53    79    75   am
    54    57    56    2
    55    45    42    1
    56    56    55    1
    57   117   114    1
    58   117   118    1
    59    75    76    2
    60    75    74    1
    61   114   115    1
    62    49    48    2
    63    42    43    1
    64    42    41    1
    65    74    73    1
    66    74    77    1
    67    55    54    1
    68   115   116    2
    69   120   119   ar
    70    43    44    2
    71    43    46   am
    72    48    54   am
    73    48    47    1
    74    41    36   am
    75   118   119    1
    76   119   121   ar
    77    46    47    1
    78    77    78    1
    79    47    50    1
    80    36    37    2
    81    36    35    1
    82    35    38    1
    83    35    34    1
    84    50    51    1
    85    38    39    1
    86    34    40    1
    87    51    52    1
    88    33    31   am
    89    30    31    1
    90    30    27    1
    91    39    40    1
    92    31    32    2
    93    52    53    1
    94    29    28    2
    95    27    28    1
    96    27    26    1
    97    24    23    1
    98    23    25    1
    99    23    20    1
   100    22    21    2
   101     4     3    2
   102    13    11   ar
   103    13    14   ar
   104    21    20    1
   105    11     8   ar
   106    20    19    1
   107    19    17   am
   108    14    12   ar
   109     3     2    1
   110    15    16    1
   111     5     2    1
   112     5     6    1
   113     8     6   ar
   114     8    10   ar
   115     1     2    1
   116    16    17    1
   117    17    18    2
   118     6     7   ar
   119    12    10   ar
   120    10     9   ar
   121     7     9   ar
