@<TRIPOS>MOLECULE
tmp/2fzbA03.pdb
 122 127 0 0 0
SMALL
GASTEIGER

@<TRIPOS>ATOM
      1  N         15.4700   -8.9880   28.0920 N.3    21  TRP21      -0.1227
      2  CA        15.9050   -9.6050   26.8350 C.3    21  TRP21       0.1737
      3  C         16.9680  -10.6490   27.2070 C.2    21  TRP21       0.2595
      4  O         17.9250  -10.3050   27.9290 O.2    21  TRP21      -0.2718
      5  CB        16.4410   -8.5720   25.8460 C.3    21  TRP21       0.0564
      6  CG        17.0250   -9.2040   24.6000 C.ar   21  TRP21       0.0003
      7  CD1       16.5060  -10.2810   23.9280 C.ar   21  TRP21       0.0946
      8  CD2       18.2170   -8.8330   23.8770 C.ar   21  TRP21       0.0152
      9  NE1       17.2900  -10.6040   22.8370 N.ar   21  TRP21      -0.2442
     10  CE2       18.3480   -9.7180   22.7920 C.ar   21  TRP21       0.0810
     11  CE3       19.1690   -7.8280   24.0650 C.ar   21  TRP21       0.0012
     12  CZ2       19.4230   -9.6250   21.8730 C.ar   21  TRP21       0.0191
     13  CZ3       20.2320   -7.7270   23.1670 C.ar   21  TRP21       0.0001
     14  CH2       20.3060   -8.6380   22.1040 C.ar   21  TRP21       0.0015
     15  N         16.7970  -11.8860   26.7360 N.am   22  LYS22      -0.1966
     16  CA        17.7070  -12.9890   26.9900 C.3    22  LYS22       0.1728
     17  C         17.5360  -13.5530   28.3920 C.2    22  LYS22       0.2617
     18  O         18.3440  -14.3590   28.8930 O.2    22  LYS22      -0.2715
     19  CB        19.1960  -12.6040   26.8230 C.3    22  LYS22       0.0311
     20  CG        19.4840  -11.8880   25.5080 C.3    22  LYS22       0.0038
     21  CD        20.9430  -11.4450   25.4110 C.3    22  LYS22       0.0206
     22  CE        21.1270  -10.0060   25.8920 C.3    22  LYS22       0.1093
     23  NZ        20.6630   -9.7780   27.3060 N.3    22  LYS22      -0.1314
     24  N         16.5410  -13.1520   29.1640 N.am   23  SER23      -0.1936
     25  CA        16.2650  -13.7890   30.4530 C.3    23  SER23       0.2040
     26  C         15.5120  -15.0960   30.2530 C.2    23  SER23       0.2485
     27  O         14.3990  -15.0690   29.7120 O.2    23  SER23      -0.2729
     28  CB        15.4100  -12.8360   31.2910 C.3    23  SER23       0.2129
     29  OG        16.1880  -11.6960   31.5780 O.3    23  SER23      -0.2179
     30  N         16.1060  -16.2340   30.5890 N.am   24  PRO24      -0.2715
     31  CA        15.4380  -17.4900   30.2310 C.3    24  PRO24       0.1521
     32  C         14.0950  -17.6170   30.9160 C.2    24  PRO24       0.2440
     33  O         13.9980  -17.2260   32.0730 O.2    24  PRO24      -0.2731
     34  CB        16.4150  -18.5260   30.8190 C.3    24  PRO24       0.0310
     35  CG        17.7420  -17.8370   30.7570 C.3    24  PRO24       0.0237
     36  CD        17.4170  -16.4360   31.2370 C.3    24  PRO24       0.0939
     37  N         13.0950  -18.1690   30.2400 N.am   25  PRO25      -0.2727
     38  CA        11.7820  -18.3640   30.8870 C.3    25  PRO25       0.1402
     39  C         11.8710  -19.0140   32.2500 C.2    25  PRO25       0.2269
     40  O         11.1420  -18.6700   33.2040 O.2    25  PRO25      -0.2865
     41  CB        11.0560  -19.2790   29.8880 C.3    25  PRO25       0.0296
     42  CG        11.6730  -18.9240   28.5740 C.3    25  PRO25       0.0237
     43  CD        13.1020  -18.5970   28.8390 C.3    25  PRO25       0.0939
     44  N          8.8130  -10.1930   21.6640 N.3    48  VAL48      -0.1231
     45  CA         9.8360  -11.0070   20.9900 C.3    48  VAL48       0.1692
     46  C         10.8020  -11.6470   21.9650 C.2    48  VAL48       0.2592
     47  O         11.5930  -12.5210   21.5630 O.2    48  VAL48      -0.2718
     48  CB        10.5570  -10.1100   19.9690 C.3    48  VAL48       0.0266
     49  CG1       11.5250   -9.1750   20.6670 C.3    48  VAL48       0.0020
     50  CG2       11.2680  -10.9590   18.9150 C.3    48  VAL48       0.0020
     51  N         10.8260  -11.2250   23.2410 N.am   49  TYR49      -0.1962
     52  CA        11.7340  -11.8390   24.2040 C.3    49  TYR49       0.1771
     53  C         11.2110  -13.2000   24.6400 C.2    49  TYR49       0.2619
     54  O         11.9430  -13.9300   25.3030 O.2    49  TYR49      -0.2715
     55  CB        11.9290  -10.9220   25.4260 C.3    49  TYR49       0.0574
     56  CG        12.5220   -9.5700   25.0670 C.ar   49  TYR49      -0.0198
     57  CD1       13.2010   -9.2460   23.9090 C.ar   49  TYR49      -0.0009
     58  CD2       12.3830   -8.5380   25.9790 C.ar   49  TYR49      -0.0009
     59  CE1       13.7540   -8.0040   23.6050 C.ar   49  TYR49       0.0417
     60  CE2       12.8860   -7.2790   25.7190 C.ar   49  TYR49       0.0417
     61  CZ        13.5550   -6.9820   24.5560 C.ar   49  TYR49       0.1957
     62  OH        14.0470   -5.7260   24.3310 O.3    49  TYR49      -0.2866
     63  N          9.9730  -13.5520   24.3340 N.am   50  GLN50      -0.1977
     64  CA         9.3760  -14.8720   24.4910 C.3    50  GLN50       0.1601
     65  C          9.3580  -15.3800   25.9260 C.2    50  GLN50       0.2287
     66  O          9.3520  -16.5800   26.2240 O.2    50  GLN50      -0.2864
     67  CB        10.0860  -15.8370   23.5260 C.3    50  GLN50       0.0394
     68  CG         9.6240  -15.5630   22.0730 C.3    50  GLN50       0.0908
     69  CD         8.1360  -15.8760   21.8770 C.2    50  GLN50       0.2608
     70  OE1        7.8450  -17.0680   21.6460 O.2    50  GLN50      -0.2717
     71  NE2        7.1830  -14.9250   21.9330 N.am   50  GLN50      -0.0878
     72  N          9.6630  -14.4210   13.6270 N.3   122  PHE122     -0.1227
     73  CA         9.9460  -13.0780   14.1040 C.3   122  PHE122      0.1736
     74  C         11.0070  -12.3430   13.3050 C.2   122  PHE122      0.2595
     75  O         10.9900  -11.1210   13.3200 O.2   122  PHE122     -0.2718
     76  CB        10.4920  -13.1670   15.5350 C.3   122  PHE122      0.0547
     77  CG         9.3950  -13.5310   16.5350 C.ar  122  PHE122     -0.0202
     78  CD1        8.1700  -12.9220   16.3990 C.ar  122  PHE122     -0.0042
     79  CD2        9.6320  -14.4150   17.5580 C.ar  122  PHE122     -0.0042
     80  CE1        7.1580  -13.1990   17.3070 C.ar  122  PHE122     -0.0003
     81  CE2        8.6140  -14.7170   18.4710 C.ar  122  PHE122     -0.0003
     82  CZ         7.3910  -14.0970   18.3290 C.ar  122  PHE122     -0.0000
     83  N         11.9320  -13.0620   12.6550 N.am  123  PHE123     -0.1976
     84  CA        13.0550  -12.4170   12.0130 C.3   123  PHE123      0.1639
     85  C         13.2100  -12.9320   10.5850 C.2   123  PHE123      0.2290
     86  O         14.2090  -13.5760   10.2490 O.2   123  PHE123     -0.2864
     87  CB        14.3390  -12.7270   12.7850 C.3   123  PHE123      0.0560
     88  CG        14.2790  -12.5610   14.2830 C.ar  123  PHE123     -0.0200
     89  CD1       14.2780  -11.3060   14.8650 C.ar  123  PHE123     -0.0042
     90  CD2       14.2180  -13.6420   15.1350 C.ar  123  PHE123     -0.0042
     91  CE1       14.2100  -11.1380   16.2400 C.ar  123  PHE123     -0.0003
     92  CE2       14.1770  -13.4890   16.5080 C.ar  123  PHE123     -0.0003
     93  CZ        14.1820  -12.2260   17.0710 C.ar  123  PHE123     -0.0000
     94  N         26.0230  -10.5990   27.1150 N.3   217  ASP217     -0.1239
     95  CA        25.4570  -11.8920   26.7080 C.3   217  ASP217      0.1674
     96  C         24.7720  -11.8230   25.3460 C.2   217  ASP217      0.2266
     97  O         24.1210  -12.7730   24.9600 O.2   217  ASP217     -0.2867
     98  CB        24.5170  -12.3940   27.7700 C.3   217  ASP217      0.1410
     99  CG        23.3560  -11.4870   28.1330 C.2   217  ASP217      0.3668
    100  OD1       23.4360  -10.2660   27.9610 O.co2 217  ASP217     -0.2456
    101  OD2       22.3520  -12.0290   28.6570 O.co2 217  ASP217     -0.2456
    102  N         24.0950  -12.4480   21.5840 N.3   219  PRO219     -0.2102
    103  CA        24.5940  -13.6320   20.8720 C.3   219  PRO219      0.1504
    104  C         25.7950  -13.3900   19.9980 C.2   219  PRO219      0.2575
    105  O         26.5460  -14.3620   19.7920 O.2   219  PRO219     -0.2718
    106  CB        23.4240  -13.9940   19.9530 C.3   219  PRO219      0.0282
    107  CG        22.2570  -13.6180   20.7980 C.3   219  PRO219      0.0208
    108  CD        22.6410  -12.2480   21.3560 C.3   219  PRO219      0.0893
    109  N         25.9570  -12.1950   19.4560 N.am  220  TRP220     -0.1977
    110  CA        27.0320  -11.9490   18.5070 C.3   220  TRP220      0.1640
    111  C         28.2790  -11.3560   19.1440 C.2   220  TRP220      0.2290
    112  O         29.1700  -10.8350   18.4320 O.2   220  TRP220     -0.2864
    113  CB        26.4720  -11.0500   17.3790 C.3   220  TRP220      0.0576
    114  CG        25.5620   -9.9570   17.8890 C.ar  220  TRP220      0.0006
    115  CD1       25.9690   -8.7160   18.2600 C.ar  220  TRP220      0.0946
    116  CD2       24.1330  -10.0160   18.0560 C.ar  220  TRP220      0.0152
    117  NE1       24.8670   -8.0000   18.6610 N.ar  220  TRP220     -0.2442
    118  CE2       23.7310   -8.7540   18.5490 C.ar  220  TRP220      0.0810
    119  CE3       23.1750  -10.9990   17.8350 C.ar  220  TRP220      0.0012
    120  CZ2       22.3620   -8.5100   18.8150 C.ar  220  TRP220      0.0191
    121  CZ3       21.8290  -10.7480   18.1040 C.ar  220  TRP220      0.0001
    122  CH2       21.4440   -9.4950   18.5940 C.ar  220  TRP220      0.0015
@<TRIPOS>BOND
     1    86    85    2
     2    85    84    1
     3    84    83    1
     4    84    87    1
     5    83    74   am
     6    87    88    1
     7    74    75    2
     8    74    73    1
     9    72    73    1
    10    73    76    1
    11    88    89   ar
    12    88    90   ar
    13    89    91   ar
    14    90    92   ar
    15    76    77    1
    16    91    93   ar
    17    78    77   ar
    18    78    80   ar
    19    92    93   ar
    20    77    79   ar
    21    80    82   ar
    22   113   114    1
    23   113   110    1
    24    79    81   ar
    25   119   116   ar
    26   119   121   ar
    27   114   116   ar
    28   114   115   ar
    29   116   118   ar
    30   121   122   ar
    31   115   117   ar
    32    82    81   ar
    33   112   111    2
    34   110   111    1
    35   110   109    1
    36   118   117   ar
    37   118   120   ar
    38   122   120   ar
    39    50    48    1
    40   109   104   am
    41   105   104    2
    42   106   107    1
    43   106   103    1
    44    48    49    1
    45    48    45    1
    46   104   103    1
    47   107   108    1
    48   103   102    1
    49    45    44    1
    50    45    46    1
    51   108   102    1
    52    47    46    2
    53    70    69    2
    54    12    14   ar
    55    12    10   ar
    56    69    71   am
    57    69    68    1
    58    46    51   am
    59    68    67    1
    60    14    13   ar
    61    10     9   ar
    62    10     8   ar
    63     9     7   ar
    64    13    11   ar
    65    51    52    1
    66    67    64    1
    67    59    57   ar
    68    59    61   ar
    69     8    11   ar
    70     8     6   ar
    71    57    56   ar
    72     7     6   ar
    73    52    53    1
    74    52    55    1
    75    62    61    1
    76    63    64    1
    77    63    53   am
    78    64    65    1
    79    61    60   ar
    80     6     5    1
    81    53    54    2
    82    97    96    2
    83    56    55    1
    84    56    58   ar
    85    96    95    1
    86    21    20    1
    87    21    22    1
    88    20    19    1
    89    60    58   ar
    90     5     2    1
    91    22    23    1
    92    65    66    2
    93    95    94    1
    94    95    98    1
    95    15    16    1
    96    15     3   am
    97    19    16    1
    98     2     3    1
    99     2     1    1
   100    16    17    1
   101     3     4    2
   102    98    99    1
   103   100    99   ar
   104    99   101   ar
   105    17    18    2
   106    17    24   am
   107    42    43    1
   108    42    41    1
   109    43    37    1
   110    24    25    1
   111    27    26    2
   112    41    38    1
   113    31    30    1
   114    31    34    1
   115    31    32    1
   116    37    38    1
   117    37    32   am
   118    26    25    1
   119    26    30   am
   120    25    28    1
   121    30    36    1
   122    35    34    1
   123    35    36    1
   124    38    39    1
   125    32    33    2
   126    28    29    1
   127    39    40    2
