@<TRIPOS>MOLECULE
tmp/2fzcC00.pdb
 147 143 0 0 0
SMALL
GASTEIGER

@<TRIPOS>ATOM
      1  N         61.5720   44.9470   49.0630 N.3    51  ALA51      -0.1231
      2  CA        62.5980   44.1460   49.7520 C.3    51  ALA51       0.1694
      3  C         63.8360   44.9410   50.1430 C.2    51  ALA51       0.2593
      4  O         64.2820   45.7980   49.3850 O.2    51  ALA51      -0.2718
      5  CB        63.0300   42.9880   48.8500 C.3    51  ALA51       0.0304
      6  N         64.3810   44.6830   51.3270 N.am   52  SER52      -0.1938
      7  CA        65.6430   45.3040   51.7320 C.3    52  SER52       0.2055
      8  C         66.2510   44.5310   52.8730 C.2    52  SER52       0.2644
      9  O         66.1020   44.8790   54.0450 O.2    52  SER52      -0.2714
     10  CB        65.5230   46.7790   52.1240 C.3    52  SER52       0.2130
     11  OG        66.7820   47.2140   52.6330 O.3    52  SER52      -0.2179
     12  N         66.9580   43.4660   52.4930 N.am   53  THR53      -0.1936
     13  CA        67.6030   42.5740   53.4290 C.3    53  THR53       0.2028
     14  C         68.4160   43.2900   54.4900 C.2    53  THR53       0.2642
     15  O         68.1580   43.0880   55.6700 O.2    53  THR53      -0.2714
     16  CB        68.4580   41.5120   52.6630 C.3    53  THR53       0.1808
     17  OG1       67.6030   40.8510   51.7180 O.3    53  THR53      -0.2208
     18  CG2       68.9930   40.4190   53.5970 C.3    53  THR53       0.0379
     19  N         69.3610   44.1560   54.1210 N.am   54  ARG54      -0.1963
     20  CA        70.1470   44.8310   55.1480 C.3    54  ARG54       0.1729
     21  C         69.2760   45.6010   56.1400 C.2    54  ARG54       0.2616
     22  O         69.3990   45.4210   57.3550 O.2    54  ARG54      -0.2715
     23  CB        71.1990   45.7690   54.5280 C.3    54  ARG54       0.0348
     24  CG        72.3150   46.1150   55.5250 C.3    54  ARG54       0.0492
     25  CD        73.5640   46.8270   54.9260 C.3    54  ARG54       0.2205
     26  NE        74.1070   46.1610   53.7350 N.pl3  54  ARG54      -0.0865
     27  CZ        73.6720   46.3780   52.4990 C.cat  54  ARG54       0.5346
     28  NH1       72.6950   47.2500   52.2860 N.pl3  54  ARG54       0.1354
     29  NH2       74.1860   45.7020   51.4800 N.pl3  54  ARG54       0.1354
     30  N         68.3890   46.4540   55.6380 N.am   55  THR55      -0.1951
     31  CA        67.5210   47.2230   56.5300 C.3    55  THR55       0.1897
     32  C         66.5400   46.3910   57.3200 C.2    55  THR55       0.2313
     33  O         66.2950   46.6740   58.4790 O.2    55  THR55      -0.2863
     34  CB        66.7370   48.2610   55.7480 C.3    55  THR55       0.1794
     35  OG1       67.6720   49.1810   55.1780 O.3    55  THR55      -0.2208
     36  CG2       65.7880   49.0230   56.6730 C.3    55  THR55       0.0378
     37  N         58.6500   49.5180   54.4760 N.3   105  ARG105     -0.1245
     38  CA        59.4710   50.0960   53.4280 C.3   105  ARG105      0.1563
     39  C         58.5790   49.9340   52.1990 C.2   105  ARG105      0.2260
     40  O         57.9030   48.9190   52.0670 O.2   105  ARG105     -0.2867
     41  CB        60.7740   49.3440   53.2990 C.3   105  ARG105      0.0307
     42  CG        61.5780   49.8200   52.1370 C.3   105  ARG105      0.0489
     43  CD        62.9490   49.4570   52.4230 C.3   105  ARG105      0.2205
     44  NE        63.8760   49.7940   51.3680 N.pl3 105  ARG105     -0.0865
     45  CZ        65.0190   50.4120   51.6100 C.cat 105  ARG105      0.5346
     46  NH1       65.3170   50.7570   52.8580 N.pl3 105  ARG105      0.1354
     47  NH2       65.8730   50.6330   50.6370 N.pl3 105  ARG105      0.1354
     48  N         64.0880   58.1930   54.8310 N.3   134  HIS134     -0.1241
     49  CA        64.6280   56.9450   55.3790 C.3   134  HIS134      0.1621
     50  C         65.1010   57.4290   56.7400 C.2   134  HIS134      0.2264
     51  O         66.2900   57.3710   57.0720 O.2   134  HIS134     -0.2867
     52  CB        65.7900   56.4520   54.5080 C.3   134  HIS134      0.0745
     53  CG        66.2050   55.0300   54.7780 C.ar  134  HIS134      0.0817
     54  ND1       65.7080   54.2870   55.8360 N.ar  134  HIS134     -0.2268
     55  CD2       67.1390   54.2550   54.1760 C.ar  134  HIS134      0.1154
     56  CE1       66.3190   53.1200   55.8730 C.ar  134  HIS134      0.1986
     57  NE2       67.1880   53.0750   54.8770 N.ar  134  HIS134     -0.2212
     58  N         67.8830   55.4470   58.9010 N.3   137  GLN137     -0.1245
     59  CA        69.2480   55.4550   58.3700 C.3   137  GLN137      0.1566
     60  C         69.8600   56.8140   58.8790 C.2   137  GLN137      0.2260
     61  O         70.9420   56.8440   59.4610 O.2   137  GLN137     -0.2867
     62  CB        69.2290   55.4110   56.8120 C.3   137  GLN137      0.0367
     63  CG        70.6230   55.5710   56.1620 C.3   137  GLN137      0.0905
     64  CD        71.5200   54.3740   56.4430 C.2   137  GLN137      0.2608
     65  OE1       72.6290   54.5070   56.9990 O.2   137  GLN137     -0.2717
     66  NE2       71.0470   53.2180   56.0970 N.am  137  GLN137     -0.0878
     67  N         70.9540   60.4590   46.0720 N.3   166  GLY166     -0.1210
     68  CA        71.0360   59.7750   47.3650 C.3   166  GLY166      0.1956
     69  C         70.0740   60.3420   48.4000 C.2   166  GLY166      0.2612
     70  O         70.3460   61.3920   48.9830 O.2   166  GLY166     -0.2717
     71  N         68.9480   59.6830   48.6460 N.am  167  ARG167     -0.1965
     72  CA        68.0020   60.2000   49.6470 C.3   167  ARG167      0.1729
     73  C         68.6420   60.2170   51.0470 C.2   167  ARG167      0.2616
     74  O         68.2490   60.9950   51.9480 O.2   167  ARG167     -0.2715
     75  CB        66.7150   59.3570   49.6580 C.3   167  ARG167      0.0348
     76  CG        66.5670   58.3630   50.8120 C.3   167  ARG167      0.0492
     77  CD        65.4770   57.2930   50.5470 C.3   167  ARG167      0.2205
     78  NE        66.0670   55.9550   50.6920 N.pl3 167  ARG167     -0.0865
     79  CZ        65.4320   54.7920   50.5530 C.cat 167  ARG167      0.5346
     80  NH1       64.1380   54.7270   50.2500 N.pl3 167  ARG167      0.1354
     81  NH2       66.1130   53.6730   50.7350 N.pl3 167  ARG167      0.1354
     82  N         69.6190   59.3510   51.2190 N.am  168  THR168     -0.1951
     83  CA        70.3400   59.2440   52.4670 C.3   168  THR168      0.1897
     84  C         71.1710   60.5290   52.7150 C.2   168  THR168      0.2313
     85  O         71.1560   61.0530   53.8250 O.2   168  THR168     -0.2863
     86  CB        71.2330   57.9530   52.4710 C.3   168  THR168      0.1794
     87  OG1       70.3930   56.7870   52.6110 O.3   168  THR168     -0.2208
     88  CG2       72.1940   57.9670   53.6170 C.3   168  THR168      0.0378
     89  N         78.8740   57.7390   49.3620 N.3   228  THR228     -0.1203
     90  CA        77.5990   57.1740   48.9130 C.3   228  THR228      0.1994
     91  C         77.8660   56.3140   47.6760 C.2   228  THR228      0.2617
     92  O         78.9050   56.4500   47.0310 O.2   228  THR228     -0.2717
     93  CB        76.5910   58.2570   48.4980 C.3   228  THR228      0.1784
     94  OG1       77.0750   58.9120   47.3130 O.3   228  THR228     -0.2211
     95  CG2       76.4070   59.2780   49.5890 C.3   228  THR228      0.0376
     96  N         76.9270   55.4360   47.3470 N.am  229  ARG229     -0.1979
     97  CA        77.0740   54.5670   46.1740 C.3   229  ARG229      0.1597
     98  C         76.7090   55.4080   44.9610 C.2   229  ARG229      0.2287
     99  O         75.9030   56.3280   45.0660 O.2   229  ARG229     -0.2864
    100  CB        76.1040   53.3750   46.2960 C.3   229  ARG229      0.0334
    101  CG        76.0930   52.3370   45.1510 C.3   229  ARG229      0.0492
    102  CD        74.8160   51.4300   45.2030 C.3   229  ARG229      0.2205
    103  NE        73.5560   52.1770   45.3760 N.pl3 229  ARG229     -0.0865
    104  CZ        72.7060   52.5460   44.4090 C.cat 229  ARG229      0.5346
    105  NH1       72.9300   52.2490   43.1340 N.pl3 229  ARG229      0.1354
    106  NH2       71.6220   53.2350   44.7290 N.pl3 229  ARG229      0.1354
    107  N         74.7480   55.5110   41.5880 N.3   231  GLN231     -0.1245
    108  CA        73.6890   54.7920   40.8690 C.3   231  GLN231      0.1566
    109  C         74.0900   54.7350   39.3650 C.2   231  GLN231      0.2260
    110  O         73.4810   55.3920   38.5190 O.2   231  GLN231     -0.2867
    111  CB        72.3190   55.5150   41.0840 C.3   231  GLN231      0.0367
    112  CG        71.8580   55.5720   42.5870 C.3   231  GLN231      0.0905
    113  CD        70.4140   56.0680   42.8370 C.2   231  GLN231      0.2608
    114  OE1       69.5320   55.9250   41.9910 O.2   231  GLN231     -0.2717
    115  NE2       70.1750   56.6200   44.0350 N.am  231  GLN231     -0.0878
    116  N         79.7180   55.1800   55.2140 N.3   265  HIS265     -0.1227
    117  CA        79.0980   54.7800   53.9350 C.3   265  HIS265      0.1737
    118  C         77.8410   53.9730   54.2780 C.2   265  HIS265      0.2438
    119  O         77.9110   53.0030   55.0620 O.2   265  HIS265     -0.2733
    120  CB        80.0730   53.9090   53.1140 C.3   265  HIS265      0.0758
    121  CG        79.6480   53.7100   51.6930 C.ar  265  HIS265      0.0818
    122  ND1       78.4050   53.2070   51.3420 N.ar  265  HIS265     -0.2268
    123  CD2       80.2770   53.9980   50.5290 C.ar  265  HIS265      0.1154
    124  CE1       78.2880   53.2070   50.0210 C.ar  265  HIS265      0.1986
    125  NE2       79.4090   53.6870   49.5050 N.ar  265  HIS265     -0.2212
    126  N         76.6750   54.3670   53.7470 N.am  266  PRO266     -0.2718
    127  CA        75.4600   53.5900   54.0800 C.3   266  PRO266      0.1535
    128  C         75.4640   52.1390   53.5860 C.2   266  PRO266      0.2598
    129  O         74.7010   51.3140   54.0900 O.2   266  PRO266     -0.2715
    130  CB        74.3190   54.4180   53.4620 C.3   266  PRO266      0.0310
    131  CG        75.0400   55.1960   52.2780 C.3   266  PRO266      0.0237
    132  CD        76.3710   55.5560   52.9250 C.3   266  PRO266      0.0939
    133  N         76.3380   51.8470   52.6160 N.am  267  LEU267     -0.1964
    134  CA        76.4980   50.5240   51.9980 C.3   267  LEU267      0.1713
    135  C         75.3380   50.1620   51.0540 C.2   267  LEU267      0.2458
    136  O         74.2200   50.6390   51.2090 O.2   267  LEU267     -0.2730
    137  CB        76.6650   49.4220   53.0620 C.3   267  LEU267      0.0310
    138  CG        77.8440   49.6040   54.0360 C.3   267  LEU267      0.0022
    139  CD1       77.9050   48.4010   54.9730 C.3   267  LEU267      0.0001
    140  CD2       79.1990   49.7690   53.2700 C.3   267  LEU267      0.0001
    141  N         75.5900   49.2580   50.1040 N.am  268  PRO268     -0.2727
    142  CA        76.8780   48.5990   49.9120 C.3   268  PRO268      0.1402
    143  C         77.8750   49.4890   49.1920 C.2   268  PRO268      0.2269
    144  O         77.4860   50.3090   48.3900 O.2   268  PRO268     -0.2865
    145  CB        76.5030   47.3530   49.0820 C.3   268  PRO268      0.0296
    146  CG        75.3340   47.8190   48.2710 C.3   268  PRO268      0.0237
    147  CD        74.5310   48.6190   49.2890 C.3   268  PRO268      0.0939
@<TRIPOS>BOND
     1   110   109    2
     2   109   108    1
     3   108   111    1
     4   108   107    1
     5   111   112    1
     6   114   113    2
     7   112   113    1
     8   113   115   am
     9   105   104    1
    10   104   106    1
    11   104   103    2
    12    98    99    2
    13    98    97    1
    14   101   102    1
    15   101   100    1
    16   102   103    1
    17    67    68    1
    18    97   100    1
    19    97    96    1
    20    92    91    2
    21    94    93    1
    22    96    91   am
    23    68    69    1
    24    91    90    1
    25   146   145    1
    26   146   147    1
    27   144   143    2
    28    69    71   am
    29    69    70    2
    30    93    90    1
    31    93    95    1
    32    71    72    1
    33     5     2    1
    34    90    89    1
    35     1     2    1
    36   145   142    1
    37   143   142    1
    38   147   141    1
    39     4     3    2
    40   125   124   ar
    41   125   123   ar
    42    72    75    1
    43    72    73    1
    44    75    76    1
    45     2     3    1
    46   142   141    1
    47   124   122   ar
    48   141   135   am
    49     3     6   am
    50    80    79    1
    51   123   121   ar
    52    77    78    1
    53    77    76    1
    54    79    78    2
    55    79    81    1
    56    47    45    1
    57    73    82   am
    58    73    74    2
    59   135   136    2
    60   135   134    1
    61    82    83    1
    62     6     7    1
    63   122   121   ar
    64    44    45    2
    65    44    43    1
    66    29    27    1
    67    45    46    1
    68   121   120    1
    69    17    16    1
    70     7    10    1
    71     7     8    1
    72   134   133    1
    73   134   137    1
    74    40    39    2
    75    10    11    1
    76    42    43    1
    77    42    41    1
    78    39    38    1
    79   131   132    1
    80   131   130    1
    81    28    27    1
    82    83    86    1
    83    83    84    1
    84    86    87    1
    85    86    88    1
    86    12     8   am
    87    12    13    1
    88    27    26    2
    89   133   128   am
    90    16    13    1
    91    16    18    1
    92    84    85    2
    93     8     9    2
    94   132   126    1
    95   137   138    1
    96   120   117    1
    97   140   138    1
    98    41    38    1
    99    38    37    1
   100    13    14    1
   101   130   127    1
   102   128   127    1
   103   128   129    2
   104    26    25    1
   105   126   127    1
   106   126   118   am
   107   117   118    1
   108   117   116    1
   109   138   139    1
   110    19    14   am
   111    19    20    1
   112    55    53   ar
   113    55    57   ar
   114   118   119    2
   115    14    15    2
   116    52    53    1
   117    52    49    1
   118    23    20    1
   119    23    24    1
   120    53    54   ar
   121    48    49    1
   122    57    56   ar
   123    25    24    1
   124    20    21    1
   125    35    34    1
   126    49    50    1
   127    30    21   am
   128    30    31    1
   129    34    31    1
   130    34    36    1
   131    54    56   ar
   132    66    64   am
   133    21    22    2
   134    63    64    1
   135    63    62    1
   136    64    65    2
   137    31    32    1
   138    50    51    2
   139    62    59    1
   140    32    33    2
   141    59    60    1
   142    59    58    1
   143    60    61    2
