@<TRIPOS>MOLECULE
tmp/2fzdA01.pdb
 190 187 0 0 0
SMALL
GASTEIGER

@<TRIPOS>ATOM
      1  N         15.3350   -8.6680   24.8940 N.3    21  TRP21      -0.1241
      2  CA        15.8090   -9.3510   23.6850 C.3    21  TRP21       0.1605
      3  C         16.8660  -10.3640   24.0670 C.2    21  TRP21       0.2264
      4  O         17.8270  -10.0210   24.7520 O.2    21  TRP21      -0.2867
      5  CB        16.3740   -8.3250   22.7240 C.3    21  TRP21       0.0550
      6  CG        16.9380   -8.9410   21.4820 C.ar   21  TRP21       0.0003
      7  CD1       16.4450  -10.0020   20.8090 C.ar   21  TRP21       0.0946
      8  CD2       18.1270   -8.5260   20.8190 C.ar   21  TRP21       0.0152
      9  NE1       17.2630  -10.2690   19.7580 N.ar   21  TRP21      -0.2442
     10  CE2       18.2800   -9.3930   19.7270 C.ar   21  TRP21       0.0810
     11  CE3       19.0400   -7.4900   21.0160 C.ar   21  TRP21       0.0012
     12  CZ2       19.3700   -9.2590   18.8760 C.ar   21  TRP21       0.0191
     13  CZ3       20.0890   -7.3490   20.1730 C.ar   21  TRP21       0.0001
     14  CH2       20.2520   -8.2390   19.0980 C.ar   21  TRP21       0.0015
     15  N          8.6610  -10.1430   18.4670 N.3    48  VAL48      -0.1231
     16  CA         9.7000  -10.8940   17.7770 C.3    48  VAL48       0.1692
     17  C         10.6740  -11.5920   18.7070 C.2    48  VAL48       0.2592
     18  O         11.4170  -12.4990   18.3110 O.2    48  VAL48      -0.2718
     19  CB        10.4410   -9.9610   16.8030 C.3    48  VAL48       0.0266
     20  CG1       11.3640   -8.9960   17.5010 C.3    48  VAL48       0.0020
     21  CG2       11.1870  -10.7370   15.7400 C.3    48  VAL48       0.0020
     22  N         10.7240  -11.1640   19.9540 N.am   49  TYR49      -0.1976
     23  CA        11.6030  -11.7670   20.9130 C.3    49  TYR49       0.1639
     24  C         11.1490  -13.1740   21.3240 C.2    49  TYR49       0.2290
     25  O         11.9330  -13.9270   21.9060 O.2    49  TYR49      -0.2864
     26  CB        11.8280  -10.9100   22.1140 C.3    49  TYR49       0.0560
     27  CG        12.3840   -9.5200   21.8630 C.ar   49  TYR49      -0.0198
     28  CD1       12.9820   -9.1850   20.6580 C.ar   49  TYR49      -0.0009
     29  CD2       12.3020   -8.5100   22.7950 C.ar   49  TYR49      -0.0009
     30  CE1       13.4690   -7.9110   20.4400 C.ar   49  TYR49       0.0417
     31  CE2       12.7880   -7.2340   22.5750 C.ar   49  TYR49       0.0417
     32  CZ        13.3710   -6.9310   21.3900 C.ar   49  TYR49       0.1957
     33  OH        13.8080   -5.6440   21.1770 O.3    49  TYR49      -0.2866
     34  N          6.3490   -3.7160   20.7690 N.3    78  LYS78      -0.1245
     35  CA         6.7330   -3.2180   19.4880 C.3    78  LYS78       0.1561
     36  C          6.0430   -4.0620   18.4300 C.2    78  LYS78       0.2260
     37  O          5.9850   -5.3050   18.5180 O.2    78  LYS78      -0.2867
     38  CB         8.2520   -3.2530   19.2550 C.3    78  LYS78       0.0271
     39  CG         9.0600   -2.7980   20.4300 C.3    78  LYS78       0.0035
     40  CD        10.5370   -2.6490   20.1550 C.3    78  LYS78       0.0206
     41  CE        11.3630   -2.4180   21.3700 C.3    78  LYS78       0.1093
     42  NZ        12.8200   -2.6420   21.2300 N.3    78  LYS78      -0.1314
     43  N          6.0170   -5.7680   15.0900 N.3    80  TRP80      -0.1227
     44  CA         7.0510   -6.3570   14.2810 C.3    80  TRP80       0.1737
     45  C          6.8430   -5.9920   12.8210 C.2    80  TRP80       0.2595
     46  O          5.7620   -5.5980   12.3830 O.2    80  TRP80      -0.2718
     47  CB         7.1890   -7.8890   14.5570 C.3    80  TRP80       0.0564
     48  CG         8.2840   -8.4720   13.7260 C.ar   80  TRP80       0.0003
     49  CD1        8.1430   -9.3310   12.7070 C.ar   80  TRP80       0.0946
     50  CD2        9.6670   -8.0910   13.7540 C.ar   80  TRP80       0.0152
     51  NE1        9.3300   -9.5570   12.1150 N.ar   80  TRP80      -0.2442
     52  CE2       10.3030   -8.8230   12.7380 C.ar   80  TRP80       0.0810
     53  CE3       10.4480   -7.2390   14.5550 C.ar   80  TRP80       0.0012
     54  CZ2       11.6620   -8.7200   12.5070 C.ar   80  TRP80       0.0191
     55  CZ3       11.7750   -7.1580   14.2970 C.ar   80  TRP80       0.0001
     56  CH2       12.3870   -7.8850   13.2820 C.ar   80  TRP80       0.0015
     57  N          7.9370   -6.1120   12.0750 N.am   81  CYS81      -0.1970
     58  CA         8.0140   -5.6400   10.7280 C.3    81  CYS81       0.1712
     59  C          7.0140   -6.3080    9.8140 C.2    81  CYS81       0.2296
     60  O          6.6700   -5.6850    8.8310 O.2    81  CYS81      -0.2864
     61  CB         9.4410   -5.8960   10.2170 C.3    81  CYS81       0.0983
     62  SG        10.7180   -5.0480   11.1540 S.3    81  CYS81      -0.0798
     63  N          8.5670   -1.1360   15.5270 N.3   111  HIS111     -0.1226
     64  CA         9.8680   -1.6870   15.9290 C.3   111  HIS111      0.1752
     65  C         11.0170   -1.2040   15.0380 C.2   111  HIS111      0.2596
     66  O         12.1000   -0.8650   15.5220 O.2   111  HIS111     -0.2718
     67  CB         9.7810   -3.2130   15.9800 C.3   111  HIS111      0.0759
     68  CG        10.8040   -3.9070   16.7940 C.ar  111  HIS111      0.0818
     69  ND1       10.5310   -5.1280   17.3480 N.ar  111  HIS111     -0.2268
     70  CD2       12.0390   -3.5330   17.1120 C.ar  111  HIS111      0.1154
     71  CE1       11.6270   -5.4900   17.9770 C.ar  111  HIS111      0.1986
     72  NE2       12.5800   -4.5460   17.8710 N.ar  111  HIS111     -0.2212
     73  N         10.7480   -1.2460   13.7460 N.am  112  TRP112     -0.1976
     74  CA        11.6730   -0.7730   12.7590 C.3   112  TRP112      0.1640
     75  C         10.8770   -0.0510   11.7110 C.2   112  TRP112      0.2290
     76  O          9.7170   -0.4030   11.4430 O.2   112  TRP112     -0.2864
     77  CB        12.4260   -1.9830   12.1010 C.3   112  TRP112      0.0576
     78  CG        13.4240   -2.5910   13.0380 C.ar  112  TRP112      0.0006
     79  CD1       13.1960   -3.5040   14.0160 C.ar  112  TRP112      0.0946
     80  CD2       14.8200   -2.2730   13.1370 C.ar  112  TRP112      0.0152
     81  NE1       14.3120   -3.7650   14.6940 N.ar  112  TRP112     -0.2442
     82  CE2       15.3390   -3.0350   14.1910 C.ar  112  TRP112      0.0810
     83  CE3       15.6810   -1.4240   12.4620 C.ar  112  TRP112      0.0012
     84  CZ2       16.6800   -2.9500   14.5680 C.ar  112  TRP112      0.0191
     85  CZ3       16.9980   -1.3290   12.7970 C.ar  112  TRP112      0.0001
     86  CH2       17.4930   -2.1230   13.8850 C.ar  112  TRP112      0.0015
     87  N         11.2480   -0.4530    8.6660 N.3   114  THR114     -0.1218
     88  CA        11.2480   -1.3720    7.5570 C.3   114  THR114      0.1862
     89  C         10.0990   -2.3660    7.6710 C.2   114  THR114      0.2287
     90  O         10.1240   -3.2640    8.5040 O.2   114  THR114     -0.2866
     91  CB        12.5750   -2.1380    7.5440 C.3   114  THR114      0.1770
     92  OG1       12.8210   -2.7090    8.8100 O.3   114  THR114     -0.2211
     93  CG2       13.7430   -1.2300    7.2350 C.3   114  THR114      0.0375
     94  N          8.1920   -5.6650    6.4490 N.3   116  PHE116     -0.1241
     95  CA         8.5450   -6.9070    5.8540 C.3   116  PHE116      0.1605
     96  C          7.2640   -7.6140    5.3710 C.2   116  PHE116      0.2264
     97  O          6.1800   -7.4220    5.9370 O.2   116  PHE116     -0.2867
     98  CB         9.2440   -7.8690    6.7670 C.3   116  PHE116      0.0534
     99  CG        10.6130   -7.4950    7.2510 C.ar  116  PHE116     -0.0203
    100  CD1       11.3550   -6.4370    6.7380 C.ar  116  PHE116     -0.0042
    101  CD2       11.2070   -8.2120    8.2700 C.ar  116  PHE116     -0.0042
    102  CE1       12.6170   -6.1040    7.2180 C.ar  116  PHE116     -0.0003
    103  CE2       12.4370   -7.9230    8.7470 C.ar  116  PHE116     -0.0003
    104  CZ        13.1590   -6.8510    8.2240 C.ar  116  PHE116     -0.0000
    105  N         11.2460  -13.1180    9.4590 N.3   123  PHE123     -0.1241
    106  CA        12.3760  -12.6160    8.7150 C.3   123  PHE123      0.1605
    107  C         12.3110  -13.1860    7.3210 C.2   123  PHE123      0.2264
    108  O         13.1680  -14.0070    6.9300 O.2   123  PHE123     -0.2867
    109  CB        13.7100  -13.0070    9.3740 C.3   123  PHE123      0.0534
    110  CG        13.8270  -12.5490   10.8060 C.ar  123  PHE123     -0.0203
    111  CD1       14.2660  -11.3120   11.1420 C.ar  123  PHE123     -0.0042
    112  CD2       13.4650  -13.3950   11.8090 C.ar  123  PHE123     -0.0042
    113  CE1       14.3550  -10.9110   12.4850 C.ar  123  PHE123     -0.0003
    114  CE2       13.5440  -13.0450   13.1260 C.ar  123  PHE123     -0.0003
    115  CZ        13.9920  -11.7980   13.4380 C.ar  123  PHE123     -0.0000
    116  N         12.9650  -13.8990    3.7570 N.3   125  LEU125     -0.1245
    117  CA        14.0720  -13.6750    2.8590 C.3   125  LEU125      0.1561
    118  C         13.7470  -14.2230    1.4790 C.2   125  LEU125      0.2260
    119  O         13.0020  -15.1890    1.3740 O.2   125  LEU125     -0.2867
    120  CB        15.3680  -14.3240    3.3320 C.3   125  LEU125      0.0270
    121  CG        15.8210  -13.9590    4.7260 C.3   125  LEU125      0.0019
    122  CD1       17.0830  -14.7920    4.9960 C.3   125  LEU125      0.0001
    123  CD2       16.1200  -12.4950    4.9750 C.3   125  LEU125      0.0001
    124  N         16.1080   -9.2920    2.7710 N.3   131  VAL131     -0.1245
    125  CA        14.8330   -9.1260    3.4040 C.3   131  VAL131      0.1561
    126  C         13.8150   -8.8380    2.2920 C.2   131  VAL131      0.2260
    127  O         14.0540   -8.1330    1.3380 O.2   131  VAL131     -0.2867
    128  CB        14.6710   -8.0490    4.5280 C.3   131  VAL131      0.0252
    129  CG1       15.6250   -8.4270    5.6540 C.3   131  VAL131      0.0019
    130  CG2       14.7550   -6.6160    4.1000 C.3   131  VAL131      0.0019
    131  N         14.3100    2.9600   15.8540 N.3   161  ASN161     -0.1240
    132  CA        15.2760    2.8370   14.7560 C.3   161  ASN161      0.1653
    133  C         14.8830    3.7700   13.6420 C.2   161  ASN161      0.2266
    134  O         15.2290    3.4560   12.4820 O.2   161  ASN161     -0.2867
    135  CB        15.4500    1.4230   14.2790 C.3   161  ASN161      0.1155
    136  CG        15.8840    0.4890   15.3430 C.2   161  ASN161      0.2627
    137  OD1       17.0220    0.6230   15.8140 O.2   161  ASN161     -0.2716
    138  ND2       15.0100   -0.3750   15.7780 N.am  161  ASN161     -0.0877
    139  N         18.9360    1.8280   23.4190 N.3   210  TYR210     -0.1241
    140  CA        19.0500    0.3800   23.4800 C.3   210  TYR210      0.1605
    141  C         20.5050   -0.0740   23.3190 C.2   210  TYR210      0.2264
    142  O         21.3780    0.6910   22.9100 O.2   210  TYR210     -0.2867
    143  CB        18.1110   -0.2930   22.5490 C.3   210  TYR210      0.0534
    144  CG        18.3300   -0.3840   21.1160 C.ar  210  TYR210     -0.0201
    145  CD1       19.3910   -1.1080   20.5680 C.ar  210  TYR210     -0.0009
    146  CD2       17.4410    0.1850   20.2260 C.ar  210  TYR210     -0.0009
    147  CE1       19.5700   -1.2380   19.2300 C.ar  210  TYR210      0.0417
    148  CE2       17.5390   -0.0120   18.8780 C.ar  210  TYR210      0.0417
    149  CZ        18.6030   -0.7160   18.3820 C.ar  210  TYR210      0.1957
    150  OH        18.7610   -0.9720   17.0830 O.3   210  TYR210     -0.2866
    151  N         25.9570  -12.2830   16.8350 N.3   220  TRP220     -0.1241
    152  CA        26.9300  -12.0470   15.7850 C.3   220  TRP220      0.1605
    153  C         28.1760  -11.3280   16.2500 C.2   220  TRP220      0.2264
    154  O         28.9130  -10.7160   15.4680 O.2   220  TRP220     -0.2867
    155  CB        26.2640  -11.2770   14.6740 C.3   220  TRP220      0.0550
    156  CG        25.5030  -10.0700   15.1670 C.ar  220  TRP220      0.0003
    157  CD1       26.0050   -8.8780   15.5510 C.ar  220  TRP220      0.0946
    158  CD2       24.0600   -9.9570   15.2960 C.ar  220  TRP220      0.0152
    159  NE1       24.9890   -8.0220   15.9340 N.ar  220  TRP220     -0.2442
    160  CE2       23.8060   -8.6580   15.7760 C.ar  220  TRP220      0.0810
    161  CE3       23.0220  -10.8150   15.0420 C.ar  220  TRP220      0.0012
    162  CZ2       22.5070   -8.2430   16.0150 C.ar  220  TRP220      0.0191
    163  CZ3       21.7120  -10.4020   15.2760 C.ar  220  TRP220      0.0001
    164  CH2       21.4910   -9.1100   15.7420 C.ar  220  TRP220      0.0015
    165  N         23.4100   -3.2640   16.2180 N.3   299  CYS299     -0.1235
    166  CA        22.3390   -3.5620   15.3090 C.3   299  CYS299      0.1677
    167  C         22.5930   -2.8080   14.0410 C.2   299  CYS299      0.2270
    168  O         21.9890   -1.7980   13.7750 O.2   299  CYS299     -0.2867
    169  CB        20.9710   -3.2180   15.8950 C.3   299  CYS299      0.0956
    170  SG        20.5300   -4.3320   17.2120 S.3   299  CYS299     -0.0801
    171  N         22.7510   -4.7720   11.0810 N.3   301  LEU301     -0.1245
    172  CA        21.8050   -5.5820   10.3350 C.3   301  LEU301      0.1561
    173  C         21.9900   -5.3410    8.8550 C.2   301  LEU301      0.2260
    174  O         21.1290   -4.8760    8.1350 O.2   301  LEU301     -0.2867
    175  CB        20.3780   -5.2790   10.7650 C.3   301  LEU301      0.0270
    176  CG        20.2010   -5.3850   12.2800 C.3   301  LEU301      0.0019
    177  CD1       18.7800   -4.9780   12.5630 C.3   301  LEU301      0.0001
    178  CD2       20.5850   -6.7620   12.8310 C.3   301  LEU301      0.0001
    179  N         22.0430   -7.3040    6.5980 N.3   303  SER303     -0.1202
    180  CA        21.1450   -8.0370    5.7200 C.3   303  SER303      0.2020
    181  C         19.9140   -7.2150    5.3410 C.2   303  SER303      0.2619
    182  O         19.1380   -7.6500    4.4650 O.2   303  SER303     -0.2717
    183  CB        20.6860   -9.3530    6.3560 C.3   303  SER303      0.2103
    184  OG        19.5240   -9.0590    7.1850 O.3   303  SER303     -0.2182
    185  N         19.7140   -6.0640    5.9200 N.am  304  CYS304     -0.1969
    186  CA        18.5670   -5.2640    5.6040 C.3   304  CYS304      0.1712
    187  C         18.9200   -4.0160    4.8220 C.2   304  CYS304      0.2296
    188  O         18.0850   -3.1640    4.6020 O.2   304  CYS304     -0.2864
    189  CB        17.9820   -4.8520    6.9390 C.3   304  CYS304      0.0983
    190  SG        16.2950   -4.2660    6.8730 S.3   304  CYS304     -0.0798
@<TRIPOS>BOND
     1   127   126    2
     2   119   118    2
     3   118   117    1
     4   126   125    1
     5   124   125    1
     6   117   120    1
     7   117   116    1
     8   120   121    1
     9   125   128    1
    10   130   128    1
    11   182   181    2
    12   128   129    1
    13   188   187    2
    14   121   123    1
    15   121   122    1
    16   187   186    1
    17   181   180    1
    18   181   185   am
    19    96    95    1
    20    96    97    2
    21   186   185    1
    22   186   189    1
    23   180   183    1
    24   180   179    1
    25    95    94    1
    26    95    98    1
    27   183   184    1
    28   100   102   ar
    29   100    99   ar
    30    98    99    1
    31   190   189    1
    32   108   107    2
    33   102   104   ar
    34    93    91    1
    35    99   101   ar
    36   107   106    1
    37    91    88    1
    38    91    92    1
    39    88    89    1
    40    88    87    1
    41    89    90    2
    42   174   173    2
    43   104   103   ar
    44   101   103   ar
    45   106   109    1
    46   106   105    1
    47    60    59    2
    48   173   172    1
    49   109   110    1
    50    59    58    1
    51    61    58    1
    52    61    62    1
    53   172   175    1
    54   172   171    1
    55    58    57    1
    56   175   176    1
    57   110   111   ar
    58   110   112   ar
    59   111   113   ar
    60    76    75    2
    61    75    74    1
    62   112   114   ar
    63    57    45   am
    64    77    74    1
    65    77    78    1
    66    51    49   ar
    67    51    52   ar
    68   176   177    1
    69   176   178    1
    70    46    45    2
    71    83    85   ar
    72    83    80   ar
    73   134   133    2
    74   113   115   ar
    75    54    52   ar
    76    54    56   ar
    77    49    48   ar
    78    52    50   ar
    79    74    73    1
    80    85    86   ar
    81    45    44    1
    82    78    80   ar
    83    78    79   ar
    84   114   115   ar
    85    80    82   ar
    86    56    55   ar
    87   133   132    1
    88    48    50   ar
    89    48    47    1
    90    73    65   am
    91    50    53   ar
    92   168   167    2
    93    86    84   ar
    94    79    81   ar
    95   167   166    1
    96    82    84   ar
    97    82    81   ar
    98   135   132    1
    99   135   136    1
   100    44    47    1
   101    44    43    1
   102    55    53   ar
   103   155   156    1
   104   155   152    1
   105   132   131    1
   106    65    66    2
   107    65    64    1
   108   161   163   ar
   109   161   158   ar
   110   156   158   ar
   111   156   157   ar
   112   163   164   ar
   113   158   160   ar
   114   166   169    1
   115   166   165    1
   116   136   138   am
   117   136   137    2
   118   154   153    2
   119    63    64    1
   120   157   159   ar
   121    21    19    1
   122   164   162   ar
   123   160   159   ar
   124   160   162   ar
   125   152   153    1
   126   152   151    1
   127   169   170    1
   128    64    67    1
   129    67    68    1
   130    68    70   ar
   131    68    69   ar
   132    19    20    1
   133    19    16    1
   134   150   149    1
   135    70    72   ar
   136    69    71   ar
   137    16    15    1
   138    16    17    1
   139    72    71   ar
   140    18    17    2
   141   149   148   ar
   142   149   147   ar
   143    36    37    2
   144    36    35    1
   145    17    22   am
   146    12    14   ar
   147    12    10   ar
   148   148   146   ar
   149    14    13   ar
   150   147   145   ar
   151    38    35    1
   152    38    39    1
   153    35    34    1
   154    10     9   ar
   155    10     8   ar
   156     9     7   ar
   157    22    23    1
   158    40    39    1
   159    40    41    1
   160    13    11   ar
   161   146   144   ar
   162    30    28   ar
   163    30    32   ar
   164   145   144   ar
   165    28    27   ar
   166     7     6   ar
   167     8    11   ar
   168     8     6   ar
   169    23    24    1
   170    23    26    1
   171   144   143    1
   172    33    32    1
   173    42    41    1
   174    24    25    2
   175    32    31   ar
   176     6     5    1
   177    27    26    1
   178    27    29   ar
   179   143   140    1
   180    31    29   ar
   181     5     2    1
   182   142   141    2
   183   141   140    1
   184   139   140    1
   185     2     3    1
   186     2     1    1
   187     3     4    2
