@<TRIPOS>MOLECULE
tmp/2fzeB00.pdb
 199 190 0 0 0
SMALL
GASTEIGER

@<TRIPOS>ATOM
      1  N         47.5260   32.8130   44.7370 N.3    44  CYS44      -0.1221
      2  CA        47.6060   32.6130   43.2930 C.3    44  CYS44       0.1808
      3  C         46.6140   31.5640   42.8160 C.2    44  CYS44       0.2601
      4  O         46.2230   30.6730   43.5700 O.2    44  CYS44      -0.2717
      5  CB        49.0290   32.1820   42.9200 C.3    44  CYS44       0.0970
      6  SG        49.2820   31.5170   41.2430 S.3    44  CYS44      -0.0800
      7  N         46.2130   31.6810   41.5560 N.am   45  HIS45      -0.1961
      8  CA        45.2870   30.7370   40.9580 C.3    45  HIS45       0.1787
      9  C         45.7070   29.2990   41.2570 C.2    45  HIS45       0.2620
     10  O         44.8660   28.4430   41.5210 O.2    45  HIS45      -0.2715
     11  CB        45.2320   30.9650   39.4430 C.3    45  HIS45       0.0785
     12  CG        44.6380   29.8240   38.6800 C.ar   45  HIS45       0.0821
     13  ND1       45.3000   28.6300   38.4920 N.ar   45  HIS45      -0.2267
     14  CD2       43.4360   29.6860   38.0700 C.ar   45  HIS45       0.1154
     15  CE1       44.5340   27.8060   37.8000 C.ar   45  HIS45       0.1986
     16  NE2       43.3970   28.4220   37.5320 N.ar   45  HIS45      -0.2212
     17  N         47.0110   29.0310   41.2280 N.am   46  THR46      -0.1951
     18  CA        47.4900   27.6760   41.4840 C.3    46  THR46       0.1897
     19  C         47.0930   27.1740   42.8700 C.2    46  THR46       0.2313
     20  O         46.7670   26.0010   43.0350 O.2    46  THR46      -0.2863
     21  CB        49.0210   27.5820   41.3210 C.3    46  THR46       0.1794
     22  OG1       49.3740   27.9790   39.9890 O.3    46  THR46      -0.2208
     23  CG2       49.5000   26.1500   41.5540 C.3    46  THR46       0.0378
     24  N         56.8710   35.4390   36.5780 N.3   177  THR177     -0.1218
     25  CA        56.4910   34.5710   35.4720 C.3   177  THR177      0.1862
     26  C         56.1470   35.3680   34.2140 C.2   177  THR177      0.2287
     27  O         56.6570   35.0810   33.1320 O.2   177  THR177     -0.2866
     28  CB        55.2920   33.6820   35.8550 C.3   177  THR177      0.1770
     29  OG1       55.6420   32.8740   36.9880 O.3   177  THR177     -0.2211
     30  CG2       54.9130   32.7720   34.6970 C.3   177  THR177      0.0375
     31  N         46.9790   37.7100   26.0340 N.3   197  PHE197     -0.1227
     32  CA        45.6690   37.1530   26.3580 C.3   197  PHE197      0.1736
     33  C         45.5390   36.9200   27.8570 C.2   197  PHE197      0.2596
     34  O         46.2560   36.0980   28.4320 O.2   197  PHE197     -0.2718
     35  CB        45.4450   35.8290   25.6190 C.3   197  PHE197      0.0547
     36  CG        45.3710   35.9690   24.1190 C.ar  197  PHE197     -0.0202
     37  CD1       46.5220   36.1910   23.3680 C.ar  197  PHE197     -0.0042
     38  CD2       44.1480   35.8770   23.4600 C.ar  197  PHE197     -0.0042
     39  CE1       46.4570   36.3170   21.9820 C.ar  197  PHE197     -0.0003
     40  CE2       44.0700   36.0020   22.0730 C.ar  197  PHE197     -0.0003
     41  CZ        45.2290   36.2210   21.3330 C.ar  197  PHE197     -0.0000
     42  N         44.6030   37.6320   28.4790 N.am  198  GLY198     -0.1942
     43  CA        44.4050   37.5150   29.9130 C.3   198  GLY198      0.2014
     44  C         45.1070   38.6960   30.5530 C.2   198  GLY198      0.2639
     45  O         46.3240   38.8460   30.4160 O.2   198  GLY198     -0.2714
     46  N         44.3500   39.5390   31.2470 N.am  199  LEU199     -0.1963
     47  CA        44.9300   40.7220   31.8630 C.3   199  LEU199      0.1728
     48  C         44.9340   40.7090   33.3870 C.2   199  LEU199      0.2617
     49  O         44.6710   41.7240   34.0370 O.2   199  LEU199     -0.2715
     50  CB        44.2280   41.9770   31.3240 C.3   199  LEU199      0.0311
     51  CG        44.3500   42.0950   29.7960 C.3   199  LEU199      0.0022
     52  CD1       43.6190   43.3360   29.2950 C.3   199  LEU199      0.0001
     53  CD2       45.8240   42.1560   29.4040 C.3   199  LEU199      0.0001
     54  N         45.2280   39.5400   33.9500 N.am  200  GLY200     -0.1940
     55  CA        45.3240   39.4180   35.3880 C.3   200  GLY200      0.2014
     56  C         46.7560   39.7880   35.7300 C.2   200  GLY200      0.2639
     57  O         47.4570   40.3780   34.9030 O.2   200  GLY200     -0.2714
     58  N         47.2070   39.4430   36.9280 N.am  201  GLY201     -0.1939
     59  CA        48.5680   39.7730   37.3130 C.3   201  GLY201      0.2014
     60  C         49.6290   39.2610   36.3530 C.2   201  GLY201      0.2639
     61  O         50.6040   39.9580   36.0690 O.2   201  GLY201     -0.2714
     62  N         49.4520   38.0450   35.8460 N.am  202  VAL202     -0.1963
     63  CA        50.4290   37.4740   34.9220 C.3   202  VAL202      0.1727
     64  C         50.4880   38.2620   33.6150 C.2   202  VAL202      0.2616
     65  O         51.5690   38.6380   33.1560 O.2   202  VAL202     -0.2715
     66  CB        50.1120   35.9920   34.6210 C.3   202  VAL202      0.0290
     67  CG1       51.0760   35.4510   33.5660 C.3   202  VAL202      0.0023
     68  CG2       50.2170   35.1790   35.9010 C.3   202  VAL202      0.0023
     69  N         49.3260   38.5180   33.0210 N.am  203  GLY203     -0.1955
     70  CA        49.2870   39.2710   31.7800 C.3   203  GLY203      0.1869
     71  C         49.8290   40.6830   31.9360 C.2   203  GLY203      0.2309
     72  O         50.4990   41.2050   31.0430 O.2   203  GLY203     -0.2863
     73  N         44.0960   41.4980   25.6330 N.3   221  VAL221     -0.1231
     74  CA        42.8540   40.7970   25.3270 C.3   221  VAL221      0.1692
     75  C         42.2590   40.1830   26.5930 C.2   221  VAL221      0.2592
     76  O         42.9340   39.4430   27.3110 O.2   221  VAL221     -0.2718
     77  CB        43.0920   39.6600   24.3060 C.3   221  VAL221      0.0266
     78  CG1       41.7640   39.0100   23.9280 C.3   221  VAL221      0.0020
     79  CG2       43.7990   40.2060   23.0720 C.3   221  VAL221      0.0020
     80  N         40.9950   40.4930   26.8670 N.am  222  ASP222     -0.1960
     81  CA        40.3230   39.9510   28.0430 C.3   222  ASP222      0.1840
     82  C         38.8120   40.0970   27.8780 C.2   222  ASP222      0.2622
     83  O         38.3370   41.0940   27.3290 O.2   222  ASP222     -0.2715
     84  CB        40.7840   40.6890   29.3060 C.3   222  ASP222      0.1450
     85  CG        40.5310   39.8900   30.5750 C.2   222  ASP222      0.3671
     86  OD1       39.3730   39.4870   30.8160 O.co2 222  ASP222     -0.2456
     87  OD2       41.4960   39.6630   31.3380 O.co2 222  ASP222     -0.2456
     88  N         38.0610   39.1010   28.3390 N.am  223  ILE223     -0.1963
     89  CA        36.6070   39.1450   28.2360 C.3   223  ILE223      0.1727
     90  C         36.0080   40.0270   29.3270 C.2   223  ILE223      0.2616
     91  O         34.8130   40.3200   29.3080 O.2   223  ILE223     -0.2715
     92  CB        35.9820   37.7360   28.3310 C.3   223  ILE223      0.0290
     93  CG1       36.5160   37.0050   29.5610 C.3   223  ILE223      0.0022
     94  CG2       36.2660   36.9550   27.0550 C.3   223  ILE223      0.0023
     95  CD1       35.8910   35.6430   29.7740 C.3   223  ILE223      0.0001
     96  N         36.8440   40.4450   30.2770 N.am  224  ASN224     -0.1972
     97  CA        36.4040   41.3170   31.3670 C.3   224  ASN224      0.1688
     98  C         36.9640   42.7100   31.0950 C.2   224  ASN224      0.2292
     99  O         38.1260   42.9840   31.3960 O.2   224  ASN224     -0.2864
    100  CB        36.9320   40.8050   32.7120 C.3   224  ASN224      0.1181
    101  CG        36.4990   41.6760   33.8770 C.2   224  ASN224      0.2629
    102  OD1       35.9400   42.7540   33.6810 O.2   224  ASN224     -0.2716
    103  ND2       36.7610   41.2140   35.0990 N.am  224  ASN224     -0.0877
    104  N         39.3400   45.0930   33.2500 N.3   227  LYS227     -0.1245
    105  CA        40.7880   44.9010   33.3420 C.3   227  LYS227      0.1561
    106  C         41.5760   45.8170   32.4080 C.2   227  LYS227      0.2260
    107  O         42.7960   45.9500   32.5430 O.2   227  LYS227     -0.2867
    108  CB        41.1470   43.4460   33.0100 C.3   227  LYS227      0.0271
    109  CG        40.4660   42.4000   33.8750 C.3   227  LYS227      0.0035
    110  CD        41.0090   42.4000   35.2980 C.3   227  LYS227      0.0206
    111  CE        40.2990   41.3630   36.1540 C.3   227  LYS227      0.1093
    112  NZ        40.8180   41.3240   37.5540 N.3   227  LYS227     -0.1314
    113  N         37.1470   39.8430   23.2950 N.3   242  PRO242     -0.2116
    114  CA        36.7170   38.8400   22.3160 C.3   242  PRO242      0.1372
    115  C         35.2070   38.8370   22.1100 C.2   242  PRO242      0.2244
    116  O         34.7190   38.5250   21.0250 O.2   242  PRO242     -0.2868
    117  CB        37.2110   37.5310   22.9260 C.3   242  PRO242      0.0268
    118  CG        38.4530   37.9550   23.6540 C.3   242  PRO242      0.0207
    119  CD        38.0080   39.2340   24.3260 C.3   242  PRO242      0.0892
    120  N         47.9450   34.0090   28.9150 N.3   267  CYS267     -0.1221
    121  CA        48.0390   34.1340   30.3640 C.3   267  CYS267      0.1808
    122  C         46.7030   33.8220   31.0280 C.2   267  CYS267      0.2601
    123  O         46.2620   34.5400   31.9280 O.2   267  CYS267     -0.2717
    124  CB        48.4740   35.5620   30.7140 C.3   267  CYS267      0.0970
    125  SG        49.9750   36.0920   29.8310 S.3   267  CYS267     -0.0800
    126  N         46.0800   32.7330   30.5950 N.am  268  ILE268     -0.1979
    127  CA        44.7780   32.3260   31.1090 C.3   268  ILE268      0.1595
    128  C         44.7420   30.8690   31.5530 C.2   268  ILE268      0.2287
    129  O         44.2720   30.5540   32.6470 O.2   268  ILE268     -0.2864
    130  CB        43.7000   32.5030   30.0260 C.3   268  ILE268      0.0276
    131  CG1       43.6770   33.9550   29.5510 C.3   268  ILE268      0.0022
    132  CG2       42.3400   32.0720   30.5610 C.3   268  ILE268      0.0022
    133  CD1       42.9550   34.1430   28.2240 C.3   268  ILE268      0.0001
    134  N         43.6560   28.4770   29.1390 N.3   270  ASN270     -0.1240
    135  CA        42.5290   27.9990   28.3340 C.3   270  ASN270      0.1653
    136  C         43.0880   27.4420   27.0180 C.2   270  ASN270      0.2266
    137  O         43.5860   28.2000   26.1910 O.2   270  ASN270     -0.2867
    138  CB        41.5870   29.1790   28.0600 C.3   270  ASN270      0.1155
    139  CG        40.3410   28.7780   27.3020 C.2   270  ASN270      0.2627
    140  OD1       40.4140   28.1220   26.2650 O.2   270  ASN270     -0.2716
    141  ND2       39.1820   29.1880   27.8110 N.am  270  ASN270     -0.0877
    142  N         42.0630   29.2330   23.8450 N.3   273  VAL273     -0.1245
    143  CA        42.6750   30.5420   23.6780 C.3   273  VAL273      0.1561
    144  C         44.1430   30.3400   23.3170 C.2   273  VAL273      0.2260
    145  O         44.7420   31.1640   22.6310 O.2   273  VAL273     -0.2867
    146  CB        42.5680   31.3910   24.9630 C.3   273  VAL273      0.0252
    147  CG1       43.2170   32.7430   24.7450 C.3   273  VAL273      0.0019
    148  CG2       41.1050   31.5760   25.3420 C.3   273  VAL273      0.0019
    149  N         51.7920   30.7290   28.9740 N.3   291  VAL291     -0.1231
    150  CA        52.1770   31.0720   30.3390 C.3   291  VAL291      0.1692
    151  C         51.1490   30.5300   31.3310 C.2   291  VAL291      0.2593
    152  O         51.4900   30.1510   32.4500 O.2   291  VAL291     -0.2718
    153  CB        52.2890   32.6070   30.5220 C.3   291  VAL291      0.0266
    154  CG1       52.9420   32.9270   31.8530 C.3   291  VAL291      0.0020
    155  CG2       53.0920   33.2110   29.3830 C.3   291  VAL291      0.0020
    156  N         49.8870   30.4960   30.9150 N.am  292  GLY292     -0.1942
    157  CA        48.8430   29.9800   31.7830 C.3   292  GLY292      0.2014
    158  C         48.9200   28.4660   31.8970 C.2   292  GLY292      0.2638
    159  O         49.3630   27.7930   30.9680 O.2   292  GLY292     -0.2714
    160  N         48.4890   27.9270   33.0330 N.am  293  VAL293     -0.1977
    161  CA        48.5190   26.4840   33.2590 C.3   293  VAL293      0.1596
    162  C         47.1330   25.8760   33.0570 C.2   293  VAL293      0.2287
    163  O         46.2070   26.1460   33.8250 O.2   293  VAL293     -0.2864
    164  CB        49.0030   26.1560   34.6870 C.3   293  VAL293      0.0276
    165  CG1       49.0400   24.6460   34.8920 C.3   293  VAL293      0.0022
    166  CG2       50.3830   26.7610   34.9180 C.3   293  VAL293      0.0022
    167  N         39.5330   36.5180   44.2940 N.3   361  MET361     -0.1245
    168  CA        40.1370   35.9490   43.0980 C.3   361  MET361      0.1570
    169  C         39.0760   35.3770   42.1670 C.2   361  MET361      0.2261
    170  O         39.1240   35.5820   40.9550 O.2   361  MET361     -0.2867
    171  CB        41.1380   34.8600   43.4940 C.3   361  MET361      0.0387
    172  CG        41.8890   34.2330   42.3340 C.3   361  MET361      0.0595
    173  SD        43.2370   33.1780   42.9190 S.3   361  MET361     -0.1393
    174  CE        42.3250   31.9450   43.7600 C.3   361  MET361      0.0692
    175  N         40.0530   41.2460   41.6690 N.3   366  SER366     -0.1202
    176  CA        41.4180   41.5580   42.0740 C.3   366  SER366      0.2020
    177  C         42.5050   41.1310   41.1000 C.2   366  SER366      0.2619
    178  O         42.2580   40.4190   40.1280 O.2   366  SER366     -0.2717
    179  CB        41.7130   40.9210   43.4350 C.3   366  SER366      0.2103
    180  OG        41.6590   39.5050   43.3620 O.3   366  SER366     -0.2182
    181  N         43.7120   41.6150   41.3610 N.am  367  ILE367     -0.1965
    182  CA        44.8780   41.2360   40.5800 C.3   367  ILE367      0.1727
    183  C         45.6260   40.3840   41.6010 C.2   367  ILE367      0.2616
    184  O         45.7710   39.1780   41.4300 O.2   367  ILE367     -0.2715
    185  CB        45.7180   42.4610   40.1620 C.3   367  ILE367      0.0290
    186  CG1       44.9410   43.3020   39.1420 C.3   367  ILE367      0.0022
    187  CG2       47.0440   42.0050   39.5570 C.3   367  ILE367      0.0023
    188  CD1       44.5360   42.5350   37.8870 C.3   367  ILE367      0.0001
    189  N         46.0640   41.0190   42.6840 N.am  368  ARG368     -0.1977
    190  CA        46.7520   40.3170   43.7600 C.3   368  ARG368      0.1597
    191  C         46.3710   40.8940   45.1170 C.2   368  ARG368      0.2287
    192  O         46.3190   42.1130   45.3060 O.2   368  ARG368     -0.2864
    193  CB        48.2730   40.3760   43.5770 C.3   368  ARG368      0.0334
    194  CG        48.8290   39.3090   42.6250 C.3   368  ARG368      0.0492
    195  CD        48.5470   37.9050   43.1590 C.3   368  ARG368      0.2205
    196  NE        49.3010   36.8610   42.4660 N.pl3 368  ARG368     -0.0865
    197  CZ        49.0520   36.4420   41.2290 C.cat 368  ARG368      0.5346
    198  NH1       48.0580   36.9750   40.5250 N.pl3 368  ARG368      0.1354
    199  NH2       49.7930   35.4800   40.6970 N.pl3 368  ARG368      0.1354
@<TRIPOS>BOND
     1   116   115    2
     2    41    39   ar
     3    41    40   ar
     4    39    37   ar
     5    40    38   ar
     6   115   114    1
     7   114   117    1
     8   114   113    1
     9   145   144    2
    10   117   118    1
    11    79    77    1
    12   113   119    1
    13   144   143    1
    14    37    36   ar
    15    38    36   ar
    16   118   119    1
    17   143   142    1
    18   143   146    1
    19    78    77    1
    20    36    35    1
    21    77    74    1
    22   147   146    1
    23   146   148    1
    24    74    73    1
    25    74    75    1
    26    35    32    1
    27    31    32    1
    28   137   136    2
    29   140   139    2
    30    32    33    1
    31    75    80   am
    32    75    76    2
    33    80    81    1
    34   136   135    1
    35    94    92    1
    36   139   141   am
    37   139   138    1
    38    83    82    2
    39    33    34    2
    40    33    42   am
    41    82    81    1
    42    82    88   am
    43    81    84    1
    44   138   135    1
    45   133   131    1
    46    89    92    1
    47    89    88    1
    48    89    90    1
    49    92    93    1
    50   135   134    1
    51    42    43    1
    52   120   121    1
    53   149   150    1
    54    52    51    1
    55    84    85    1
    56    91    90    2
    57    90    96   am
    58   155   153    1
    59    53    51    1
    60   131   130    1
    61    93    95    1
    62    51    50    1
    63   125   124    1
    64    43    44    1
    65   130   132    1
    66   130   127    1
    67    96    97    1
    68   150   153    1
    69   150   151    1
    70   121   124    1
    71   121   122    1
    72    45    44    2
    73   153   154    1
    74    44    46   am
    75    85    86   ar
    76    85    87   ar
    77   126   122   am
    78   126   127    1
    79   156   151   am
    80   156   157    1
    81   159   158    2
    82   122   123    2
    83    72    71    2
    84    98    97    1
    85    98    99    2
    86   127   128    1
    87    46    47    1
    88    50    47    1
    89   151   152    2
    90    97   100    1
    91   128   129    2
    92    70    71    1
    93    70    69    1
    94   157   158    1
    95    47    48    1
    96   158   160   am
    97   106   107    2
    98   106   105    1
    99   100   101    1
   100   108   105    1
   101   108   109    1
   102    69    64   am
   103   160   161    1
   104   162   161    1
   105   162   163    2
   106    27    26    2
   107    65    64    2
   108   104   105    1
   109   161   164    1
   110    48    54   am
   111    48    49    2
   112    67    66    1
   113    64    63    1
   114   102   101    2
   115   109   110    1
   116   101   103   am
   117    54    55    1
   118    26    25    1
   119    66    63    1
   120    66    68    1
   121   164   165    1
   122   164   166    1
   123    30    28    1
   124    57    56    2
   125    63    62    1
   126   110   111    1
   127    55    56    1
   128    25    28    1
   129    25    24    1
   130    56    58   am
   131    62    60   am
   132    28    29    1
   133    61    60    2
   134   111   112    1
   135    60    59    1
   136    58    59    1
   137    16    15   ar
   138    16    14   ar
   139    15    13   ar
   140   188   186    1
   141    14    12   ar
   142    13    12   ar
   143    12    11    1
   144   186   185    1
   145    11     8    1
   146   187   185    1
   147    22    21    1
   148   178   177    2
   149   185   182    1
   150   198   197    1
   151   182   181    1
   152   182   183    1
   153   199   197    1
   154   170   169    2
   155     8     9    1
   156     8     7    1
   157   177   181   am
   158   177   176    1
   159    17     9   am
   160    17    18    1
   161   197   196    2
   162     6     5    1
   163     9    10    2
   164    21    18    1
   165    21    23    1
   166   184   183    2
   167    18    19    1
   168     7     3   am
   169   183   189   am
   170   175   176    1
   171   176   179    1
   172   169   168    1
   173   172   173    1
   174   172   171    1
   175   196   195    1
   176   194   195    1
   177   194   193    1
   178   189   190    1
   179     3     2    1
   180     3     4    2
   181    19    20    2
   182   173   174    1
   183     5     2    1
   184   168   171    1
   185   168   167    1
   186     2     1    1
   187   180   179    1
   188   193   190    1
   189   190   191    1
   190   191   192    2
