@<TRIPOS>MOLECULE
tmp/2fzgA00.pdb
 137 132 0 0 0
SMALL
GASTEIGER

@<TRIPOS>ATOM
      1  N         49.5110   32.5580   18.5360 N.3    52  SER52      -0.1217
      2  CA        48.5940   31.5180   18.0790 C.3    52  SER52       0.1889
      3  C         49.2080   30.7970   16.8730 C.2    52  SER52       0.2288
      4  O         48.9050   31.1180   15.7140 O.2    52  SER52      -0.2866
      5  CB        47.2280   32.1240   17.7240 C.3    52  SER52       0.2089
      6  OG        46.5430   31.3310   16.7600 O.3    52  SER52      -0.2183
      7  N         48.9100   27.7340   15.2920 N.3    54  ARG54      -0.1231
      8  CA        48.0850   27.1450   14.2450 C.3    54  ARG54       0.1694
      9  C         47.4250   28.1490   13.3100 C.2    54  ARG54       0.2592
     10  O         47.3150   27.8850   12.1100 O.2    54  ARG54      -0.2718
     11  CB        47.0080   26.2380   14.8450 C.3    54  ARG54       0.0321
     12  CG        46.1110   25.5460   13.8040 C.3    54  ARG54       0.0489
     13  CD        44.9430   24.7960   14.4760 C.3    54  ARG54       0.2205
     14  NE        45.4280   23.9200   15.5410 N.pl3  54  ARG54      -0.0865
     15  CZ        45.2520   24.1580   16.8390 C.cat  54  ARG54       0.5346
     16  NH1       45.7390   23.3170   17.7420 N.pl3  54  ARG54       0.1354
     17  NH2       44.5730   25.2300   17.2490 N.pl3  54  ARG54       0.1354
     18  N         46.9680   29.2950   13.8440 N.am   55  THR55      -0.1953
     19  CA        46.3070   30.3260   13.0250 C.3    55  THR55       0.1897
     20  C         47.3250   31.1530   12.2900 C.2    55  THR55       0.2313
     21  O         47.1420   31.5040   11.1190 O.2    55  THR55      -0.2863
     22  CB        45.4270   31.2390   13.8880 C.3    55  THR55       0.1794
     23  OG1       44.3090   30.4760   14.3300 O.3    55  THR55      -0.2208
     24  CG2       44.9200   32.4680   13.0980 C.3    55  THR55       0.0378
     25  N         46.0270   39.3820   15.2350 N.3   105  ARG105     -0.1245
     26  CA        45.3250   38.7000   16.3070 C.3   105  ARG105      0.1563
     27  C         45.7060   39.5110   17.5350 C.2   105  ARG105      0.2260
     28  O         46.8820   39.8730   17.6980 O.2   105  ARG105     -0.2867
     29  CB        45.7720   37.2560   16.4570 C.3   105  ARG105      0.0307
     30  CG        44.9940   36.5190   17.5350 C.3   105  ARG105      0.0489
     31  CD        45.3490   35.1260   17.4320 C.3   105  ARG105      0.2205
     32  NE        44.7300   34.3360   18.4640 N.pl3 105  ARG105     -0.0865
     33  CZ        43.8560   33.3760   18.1920 C.cat 105  ARG105      0.5346
     34  NH1       43.4790   33.1610   16.9330 N.pl3 105  ARG105      0.1354
     35  NH2       43.4350   32.5760   19.1540 N.pl3 105  ARG105      0.1354
     36  N         36.1550   36.2770   14.9230 N.3   134  HIS134     -0.1241
     37  CA        37.1770   35.3700   14.3670 C.3   134  HIS134      0.1621
     38  C         36.6400   34.9570   12.9910 C.2   134  HIS134      0.2264
     39  O         36.4840   33.7680   12.6820 O.2   134  HIS134     -0.2867
     40  CB        37.3390   34.1340   15.2590 C.3   134  HIS134      0.0745
     41  CG        38.6200   33.3990   15.0440 C.ar  134  HIS134      0.0817
     42  ND1       39.4940   33.7090   14.0250 N.ar  134  HIS134     -0.2268
     43  CD2       39.1460   32.3190   15.6740 C.ar  134  HIS134      0.1154
     44  CE1       40.5020   32.8540   14.0320 C.ar  134  HIS134      0.1986
     45  NE2       40.3170   31.9980   15.0230 N.ar  134  HIS134     -0.2212
     46  N         38.0070   31.9440   10.8330 N.3   137  GLN137     -0.1245
     47  CA        37.6810   30.5850   11.2980 C.3   137  GLN137      0.1566
     48  C         36.2750   30.1940   10.8060 C.2   137  GLN137      0.2260
     49  O         36.0570   29.0840   10.2980 O.2   137  GLN137     -0.2867
     50  CB        37.7220   30.4700   12.8160 C.3   137  GLN137      0.0367
     51  CG        37.2790   29.1030   13.3020 C.3   137  GLN137      0.0905
     52  CD        38.3540   28.0240   13.1870 C.2   137  GLN137      0.2608
     53  OE1       39.5100   28.2520   13.5220 O.2   137  GLN137     -0.2717
     54  NE2       37.9590   26.8390   12.7340 N.am  137  GLN137     -0.0878
     55  N         32.8160   30.4010   23.7710 N.3   166  GLY166     -0.1210
     56  CA        33.4340   30.2120   22.4610 C.3   166  GLY166      0.1956
     57  C         32.9230   31.1410   21.3640 C.2   166  GLY166      0.2612
     58  O         31.7720   31.0370   20.9250 O.2   166  GLY166     -0.2717
     59  N         33.7880   32.0500   20.9200 N.am  167  ARG167     -0.1965
     60  CA        33.4550   33.0130   19.8670 C.3   167  ARG167      0.1729
     61  C         33.1940   32.3310   18.5280 C.2   167  ARG167      0.2616
     62  O         32.4040   32.8290   17.7310 O.2   167  ARG167     -0.2715
     63  CB        34.5710   34.0480   19.6960 C.3   167  ARG167      0.0348
     64  CG        35.9230   33.4360   19.3600 C.3   167  ARG167      0.0492
     65  CD        37.0120   34.4920   19.1990 C.3   167  ARG167      0.2205
     66  NE        38.3290   33.8670   19.0670 N.pl3 167  ARG167     -0.0865
     67  CZ        39.4830   34.5380   19.1250 C.cat 167  ARG167      0.5346
     68  NH1       40.6310   33.8980   19.0030 N.pl3 167  ARG167      0.1354
     69  NH2       39.5040   35.8550   19.3110 N.pl3 167  ARG167      0.1354
     70  N         33.8420   31.1890   18.2860 N.am  168  THR168     -0.1951
     71  CA        33.6620   30.4580   17.0310 C.3   168  THR168      0.1897
     72  C         32.2310   30.0130   16.8220 C.2   168  THR168      0.2313
     73  O         31.7230   30.1270   15.7190 O.2   168  THR168     -0.2863
     74  CB        34.5850   29.1870   16.9560 C.3   168  THR168      0.1794
     75  OG1       35.8860   29.5590   17.3930 O.3   168  THR168     -0.2208
     76  CG2       34.8030   28.7030   15.5190 C.3   168  THR168      0.0378
     77  N         33.3510   21.9670   20.5350 N.3   228  THR228     -0.1203
     78  CA        34.2540   23.0590   20.9520 C.3   228  THR228      0.1994
     79  C         35.0260   22.6660   22.1930 C.2   228  THR228      0.2617
     80  O         34.6630   21.7260   22.9170 O.2   228  THR228     -0.2717
     81  CB        33.5580   24.4270   21.2720 C.3   228  THR228      0.1784
     82  OG1       32.5780   24.2430   22.2960 O.3   228  THR228     -0.2211
     83  CG2       32.9080   24.9900   20.0480 C.3   228  THR228      0.0376
     84  N         36.1000   23.4060   22.4330 N.am  229  ARG229     -0.1979
     85  CA        36.9520   23.1610   23.5680 C.3   229  ARG229      0.1597
     86  C         36.3840   23.8820   24.7480 C.2   229  ARG229      0.2287
     87  O         36.1870   25.0850   24.6960 O.2   229  ARG229     -0.2864
     88  CB        38.3370   23.7170   23.3040 C.3   229  ARG229      0.0334
     89  CG        39.3490   23.4300   24.3960 C.3   229  ARG229      0.0492
     90  CD        40.5190   24.3730   24.2310 C.3   229  ARG229      0.2205
     91  NE        40.1660   25.6810   24.7720 N.pl3 229  ARG229     -0.0865
     92  CZ        40.7730   26.8210   24.4640 C.cat 229  ARG229      0.5346
     93  NH1       41.7860   26.8290   23.5910 N.pl3 229  ARG229      0.1354
     94  NH2       40.3850   27.9510   25.0580 N.pl3 229  ARG229      0.1354
     95  N         35.8030   20.5540   14.6930 N.3   265  HIS265     -0.1227
     96  CA        36.2920   21.0490   15.9810 C.3   265  HIS265      0.1737
     97  C         37.3950   22.0440   15.6230 C.2   265  HIS265      0.2438
     98  O         38.3510   21.6960   14.9360 O.2   265  HIS265     -0.2733
     99  CB        36.8640   19.9080   16.7910 C.3   265  HIS265      0.0758
    100  CG        37.1370   20.2600   18.2150 C.ar  265  HIS265      0.0818
    101  ND1       38.0670   21.2120   18.5740 N.ar  265  HIS265     -0.2268
    102  CD2       36.6360   19.7690   19.3710 C.ar  265  HIS265      0.1154
    103  CE1       38.1380   21.2870   19.8920 C.ar  265  HIS265      0.1986
    104  NE2       37.2820   20.4180   20.4000 N.ar  265  HIS265     -0.2212
    105  N         37.2680   23.3140   16.0440 N.am  266  PRO266     -0.2718
    106  CA        38.3330   24.2500   15.6690 C.3   266  PRO266      0.1535
    107  C         39.7230   23.9230   16.2270 C.2   266  PRO266      0.2598
    108  O         40.7350   24.4920   15.7990 O.2   266  PRO266     -0.2715
    109  CB        37.7840   25.6000   16.1310 C.3   266  PRO266      0.0310
    110  CG        36.8430   25.2410   17.2140 C.3   266  PRO266      0.0237
    111  CD        36.1870   24.0010   16.7630 C.3   266  PRO266      0.0939
    112  N         39.7640   22.9530   17.1390 N.am  267  LEU267     -0.1964
    113  CA        40.9970   22.5130   17.7680 C.3   267  LEU267      0.1713
    114  C         41.3880   23.5830   18.7730 C.2   267  LEU267      0.2458
    115  O         41.0360   24.7750   18.6290 O.2   267  LEU267     -0.2730
    116  CB        42.0960   22.2750   16.7200 C.3   267  LEU267      0.0310
    117  CG        42.3100   20.8410   16.1590 C.3   267  LEU267      0.0022
    118  CD1       41.0350   19.9740   16.1720 C.3   267  LEU267      0.0001
    119  CD2       42.8460   20.9560   14.7400 C.3   267  LEU267      0.0001
    120  N         42.1170   23.1770   19.8150 N.am  268  PRO268     -0.2727
    121  CA        42.5380   21.7810   19.9970 C.3   268  PRO268      0.1402
    122  C         41.4920   20.8920   20.6450 C.2   268  PRO268      0.2269
    123  O         40.6890   21.3450   21.4380 O.2   268  PRO268     -0.2865
    124  CB        43.7920   21.9190   20.8450 C.3   268  PRO268      0.0296
    125  CG        43.4140   23.0910   21.7780 C.3   268  PRO268      0.0237
    126  CD        42.7080   24.0660   20.8320 C.3   268  PRO268      0.0939
    127  N         41.6100   31.0620    3.6210 N.3   296  ARG296     -0.1245
    128  CA        42.4310   32.2330    3.8750 C.3   296  ARG296      0.1563
    129  C         43.0250   32.7450    2.5880 C.2   296  ARG296      0.2260
    130  O         43.2310   33.9380    2.4400 O.2   296  ARG296     -0.2867
    131  CB        43.4960   31.9570    4.9640 C.3   296  ARG296      0.0307
    132  CG        42.9140   32.1730    6.3770 C.3   296  ARG296      0.0489
    133  CD        43.5200   31.2900    7.5030 C.3   296  ARG296      0.2205
    134  NE        42.7410   31.5280    8.7050 N.pl3 296  ARG296     -0.0865
    135  CZ        42.6010   30.6860    9.7190 C.cat 296  ARG296      0.5346
    136  NH1       41.8630   31.0410   10.7710 N.pl3 296  ARG296      0.1354
    137  NH2       43.1850   29.4980    9.6910 N.pl3 296  ARG296      0.1354
@<TRIPOS>BOND
     1   130   129    2
     2   129   128    1
     3   127   128    1
     4   128   131    1
     5   131   132    1
     6   132   133    1
     7   133   134    1
     8   134   135    2
     9   137   135    1
    10   135   136    1
    11    49    48    2
    12    48    47    1
    13    46    47    1
    14    21    20    2
    15    47    50    1
    16    10     9    2
    17    20    19    1
    18    39    38    2
    19    54    52   am
    20    50    51    1
    21    38    37    1
    22    19    18    1
    23    19    22    1
    24    24    22    1
    25    52    51    1
    26    52    53    2
    27     9    18   am
    28     9     8    1
    29    12    13    1
    30    12    11    1
    31    22    23    1
    32    42    44   ar
    33    42    41   ar
    34    44    45   ar
    35     8    11    1
    36     8     7    1
    37    37    36    1
    38    37    40    1
    39    13    14    1
    40    95    96    1
    41   119   117    1
    42    98    97    2
    43    45    43   ar
    44    41    40    1
    45    41    43   ar
    46    25    26    1
    47    76    74    1
    48    14    15    2
    49    97    96    1
    50    97   105   am
    51   106   105    1
    52   106   109    1
    53   106   107    1
    54     4     3    2
    55    73    72    2
    56   108   107    2
    57    96    99    1
    58   105   111    1
    59   109   110    1
    60   117   118    1
    61   117   116    1
    62   107   112   am
    63    26    29    1
    64    26    27    1
    65    29    30    1
    66   116   113    1
    67     6     5    1
    68   111   110    1
    69    99   100    1
    70    72    71    1
    71    15    17    1
    72    15    16    1
    73     3     2    1
    74    34    33    1
    75    74    71    1
    76    74    75    1
    77    71    70    1
    78   112   113    1
    79    31    30    1
    80    31    32    1
    81    27    28    2
    82     5     2    1
    83    62    61    2
    84   113   114    1
    85     2     1    1
    86    33    32    2
    87    33    35    1
    88   100   101   ar
    89   100   102   ar
    90    70    61   am
    91    61    60    1
    92   101   103   ar
    93   115   114    2
    94   114   120   am
    95    68    67    1
    96    66    67    2
    97    66    65    1
    98    67    69    1
    99    65    64    1
   100    64    63    1
   101   102   104   ar
   102    63    60    1
   103   120   121    1
   104   120   126    1
   105    60    59    1
   106   103   104   ar
   107   121   122    1
   108   121   124    1
   109    83    81    1
   110    77    78    1
   111   122   123    2
   112   126   125    1
   113   124   125    1
   114    59    57   am
   115    58    57    2
   116    78    81    1
   117    78    79    1
   118    81    82    1
   119    57    56    1
   120    79    84   am
   121    79    80    2
   122    84    85    1
   123    56    55    1
   124    88    85    1
   125    88    89    1
   126    85    86    1
   127    93    92    1
   128    90    89    1
   129    90    91    1
   130    92    91    2
   131    92    94    1
   132    87    86    2
