@<TRIPOS>MOLECULE
tmp/2fzhA01.pdb
 168 161 0 0 0
SMALL
GASTEIGER

@<TRIPOS>ATOM
      1  N         23.6490    7.2880   16.6580 N.3    10  ILE10      -0.1231
      2  CA        24.2070    6.5100   15.5480 C.3    10  ILE10       0.1692
      3  C         25.6740    6.1830   15.8710 C.2    10  ILE10       0.2592
      4  O         26.4270    7.0280   16.3670 O.2    10  ILE10      -0.2718
      5  CB        24.0490    7.2280   14.1700 C.3    10  ILE10       0.0266
      6  CG1       24.6080    6.3300   13.0520 C.3    10  ILE10       0.0019
      7  CG2       24.6910    8.5980   14.1980 C.3    10  ILE10       0.0020
      8  CD1       24.2080    6.7350   11.6190 C.3    10  ILE10       0.0001
      9  N         26.0670    4.9430   15.5980 N.am   11  VAL11      -0.1966
     10  CA        27.4080    4.5010   15.9330 C.3    11  VAL11       0.1727
     11  C         27.7830    3.1910   15.2480 C.2    11  VAL11       0.2616
     12  O         26.9110    2.3950   14.8890 O.2    11  VAL11      -0.2715
     13  CB        27.5090    4.2810   17.4790 C.3    11  VAL11       0.0290
     14  CG1       26.4930    3.2010   17.9130 C.3    11  VAL11       0.0023
     15  CG2       28.9080    3.8650   17.8820 C.3    11  VAL11       0.0023
     16  N         29.0870    2.9830   15.0880 N.am   12  ALA12      -0.1977
     17  CA        29.6390    1.7670   14.5070 C.3    12  ALA12       0.1597
     18  C         30.4340    1.1220   15.6570 C.2    12  ALA12       0.2287
     19  O         31.2810    1.7810   16.2640 O.2    12  ALA12      -0.2864
     20  CB        30.5750    2.1210   13.3470 C.3    12  ALA12       0.0319
     21  N         40.5920    8.0450   17.4320 N.3    24  SER24      -0.1202
     22  CA        40.1980    7.8140   16.0450 C.3    24  SER24       0.2020
     23  C         39.5570    6.4430   15.8930 C.2    24  SER24       0.2618
     24  O         39.2780    5.7640   16.8820 O.2    24  SER24      -0.2717
     25  CB        41.4180    7.9130   15.1290 C.3    24  SER24       0.2103
     26  OG        42.4250    7.0030   15.5330 O.3    24  SER24      -0.2182
     27  N         39.3230    6.0410   14.6470 N.am   25  LEU25      -0.1979
     28  CA        38.7180    4.7430   14.3640 C.3    25  LEU25       0.1596
     29  C         39.7630    3.7310   13.9310 C.2    25  LEU25       0.2287
     30  O         40.5630    3.9930   13.0310 O.2    25  LEU25      -0.2864
     31  CB        37.6630    4.8690   13.2660 C.3    25  LEU25       0.0297
     32  CG        36.3770    5.6160   13.6220 C.3    25  LEU25       0.0022
     33  CD1       35.4540    5.6290   12.4140 C.3    25  LEU25       0.0001
     34  CD2       35.7000    4.9420   14.8090 C.3    25  LEU25       0.0001
     35  N         30.6580    2.5940    4.9320 N.3    32  GLU32      -0.1231
     36  CA        30.0440    2.7610    6.2460 C.3    32  GLU32       0.1699
     37  C         29.7710    4.2540    6.4560 C.2    32  GLU32       0.2592
     38  O         28.6450    4.6410    6.7810 O.2    32  GLU32      -0.2718
     39  CB        30.9720    2.2140    7.3360 C.3    32  GLU32       0.0402
     40  CG        30.2850    1.8530    8.6640 C.3    32  GLU32       0.1161
     41  CD        29.6630    3.0510    9.3570 C.2    32  GLU32       0.3649
     42  OE1       30.3530    4.0840    9.4750 O.co2  32  GLU32      -0.2457
     43  OE2       28.5010    2.9550    9.7910 O.co2  32  GLU32      -0.2457
     44  N         30.7880    5.0890    6.2370 N.am   33  ILE33      -0.1980
     45  CA        30.6320    6.5350    6.3830 C.3    33  ILE33       0.1595
     46  C         29.5610    7.0740    5.4340 C.2    33  ILE33       0.2287
     47  O         28.8450    8.0120    5.7720 O.2    33  ILE33      -0.2864
     48  CB        31.9570    7.2960    6.1010 C.3    33  ILE33       0.0276
     49  CG1       33.0650    6.7720    7.0150 C.3    33  ILE33       0.0022
     50  CG2       31.7790    8.7850    6.3810 C.3    33  ILE33       0.0022
     51  CD1       32.7230    6.8570    8.4800 C.3    33  ILE33       0.0001
     52  N         26.9120    5.5960    4.5870 N.3    35  TYR35      -0.1227
     53  CA        25.6620    5.2800    5.2480 C.3    35  TYR35       0.1736
     54  C         25.3900    6.3330    6.3170 C.2    35  TYR35       0.2595
     55  O         24.2770    6.8470    6.4290 O.2    35  TYR35      -0.2718
     56  CB        25.7780    3.9290    5.9290 C.3    35  TYR35       0.0548
     57  CG        24.6160    3.6000    6.8220 C.ar   35  TYR35      -0.0200
     58  CD1       23.4120    3.1540    6.2860 C.ar   35  TYR35      -0.0009
     59  CD2       24.7350    3.6730    8.2040 C.ar   35  TYR35      -0.0009
     60  CE1       22.3640    2.7780    7.1050 C.ar   35  TYR35       0.0417
     61  CE2       23.6850    3.3000    9.0340 C.ar   35  TYR35       0.0417
     62  CZ        22.5140    2.8510    8.4750 C.ar   35  TYR35       0.1957
     63  OH        21.4910    2.4310    9.2900 O.3    35  TYR35      -0.2866
     64  N         26.4190    6.6320    7.1130 N.am   36  PHE36      -0.1962
     65  CA        26.3000    7.6230    8.1800 C.3    36  PHE36       0.1771
     66  C         25.7190    8.9050    7.6050 C.2    36  PHE36       0.2619
     67  O         24.7200    9.4190    8.1020 O.2    36  PHE36      -0.2715
     68  CB        27.6690    7.9260    8.8070 C.3    36  PHE36       0.0574
     69  CG        27.6760    9.1680    9.6580 C.ar   36  PHE36      -0.0200
     70  CD1       27.1550    9.1530   10.9540 C.ar   36  PHE36      -0.0042
     71  CD2       28.1330   10.3720    9.1360 C.ar   36  PHE36      -0.0042
     72  CE1       27.0890   10.3280   11.7170 C.ar   36  PHE36      -0.0003
     73  CE2       28.0710   11.5510    9.8840 C.ar   36  PHE36      -0.0003
     74  CZ        27.5480   11.5310   11.1750 C.ar   36  PHE36      -0.0000
     75  N         26.3610    9.4030    6.5500 N.am   37  LYS37      -0.1977
     76  CA        25.9460   10.6280    5.8770 C.3    37  LYS37       0.1596
     77  C         24.4850   10.5850    5.4450 C.2    37  LYS37       0.2287
     78  O         23.6980   11.4760    5.7770 O.2    37  LYS37      -0.2864
     79  CB        26.8320   10.8800    4.6510 C.3    37  LYS37       0.0298
     80  CG        26.5010   12.1650    3.9070 C.3    37  LYS37       0.0038
     81  CD        27.5070   12.4930    2.8030 C.3    37  LYS37       0.0206
     82  CE        27.2640   13.8940    2.2480 C.3    37  LYS37       0.1093
     83  NZ        28.4430   14.4180    1.4880 N.3    37  LYS37      -0.1314
     84  N         35.2920   14.4360   19.0930 N.3    61  THR61      -0.1218
     85  CA        34.8830   13.8820   17.8060 C.3    61  THR61       0.1862
     86  C         34.9360   14.9880   16.7650 C.2    61  THR61       0.2287
     87  O         35.4000   14.7770   15.6450 O.2    61  THR61      -0.2866
     88  CB        33.4630   13.2700   17.8930 C.3    61  THR61       0.1770
     89  OG1       33.5060   12.1070   18.7320 O.3    61  THR61      -0.2211
     90  CG2       32.9520   12.8610   16.5250 C.3    61  THR61       0.0375
     91  N         38.3680   15.2370   15.6690 N.3    64  SER64      -0.1202
     92  CA        38.8180   14.0220   15.0050 C.3    64  SER64       0.2020
     93  C         38.3050   13.8920   13.5790 C.2    64  SER64       0.2619
     94  O         38.6910   12.9740   12.8650 O.2    64  SER64      -0.2717
     95  CB        38.3870   12.8000   15.8050 C.3    64  SER64       0.2103
     96  OG        38.8580   11.6230   15.1790 O.3    64  SER64      -0.2182
     97  N         37.4380   14.8090   13.1690 N.am   65  ILE65      -0.1966
     98  CA        36.8890   14.7730   11.8230 C.3    65  ILE65       0.1712
     99  C         37.6630   15.7140   10.8950 C.2    65  ILE65       0.2458
    100  O         37.9580   16.8560   11.2610 O.2    65  ILE65      -0.2730
    101  CB        35.4040   15.1820   11.8300 C.3    65  ILE65       0.0289
    102  CG1       34.6110   14.2180   12.7210 C.3    65  ILE65       0.0022
    103  CG2       34.8600   15.1890   10.4050 C.3    65  ILE65       0.0023
    104  CD1       33.1450   14.5580   12.8670 C.3    65  ILE65       0.0001
    105  N         38.0070   15.2460    9.6830 N.am   66  PRO66      -0.2727
    106  CA        38.7470   16.0650    8.7190 C.3    66  PRO66       0.1402
    107  C         38.0490   17.3850    8.4160 C.2    66  PRO66       0.2269
    108  O         36.8260   17.4260    8.2750 O.2    66  PRO66      -0.2865
    109  CB        38.8240   15.1640    7.4910 C.3    66  PRO66       0.0296
    110  CG        38.8940   13.8000    8.0880 C.3    66  PRO66       0.0237
    111  CD        37.8350   13.8750    9.1730 C.3    66  PRO66       0.0939
    112  N         35.5940   17.8000    5.5940 N.3    69  PHE69      -0.1241
    113  CA        34.2510   17.2540    5.7730 C.3    69  PHE69       0.1605
    114  C         33.5150   17.9490    6.9210 C.2    69  PHE69       0.2264
    115  O         32.4010   17.5630    7.2860 O.2    69  PHE69      -0.2867
    116  CB        34.3370   15.7470    6.0410 C.3    69  PHE69       0.0534
    117  CG        35.1260   14.9900    5.0090 C.ar   69  PHE69      -0.0203
    118  CD1       34.7210   14.9670    3.6780 C.ar   69  PHE69      -0.0042
    119  CD2       36.2930   14.3220    5.3650 C.ar   69  PHE69      -0.0042
    120  CE1       35.4720   14.2920    2.7160 C.ar   69  PHE69      -0.0003
    121  CE2       37.0510   13.6440    4.4100 C.ar   69  PHE69      -0.0003
    122  CZ        36.6390   13.6300    3.0830 C.ar   69  PHE69      -0.0000
    123  N         29.5940   19.1750    9.1060 N.3    72  LEU72      -0.1245
    124  CA        28.7570   18.2410    8.3610 C.3    72  LEU72       0.1561
    125  C         27.7510   19.0380    7.5670 C.2    72  LEU72       0.2260
    126  O         26.8550   19.6750    8.1280 O.2    72  LEU72      -0.2867
    127  CB        28.0270   17.2760    9.2970 C.3    72  LEU72       0.0270
    128  CG        28.9090   16.4790   10.2520 C.3    72  LEU72       0.0019
    129  CD1       28.1170   15.3200   10.8620 C.3    72  LEU72       0.0001
    130  CD2       30.1140   15.9500    9.4990 C.3    72  LEU72       0.0001
    131  N         23.3970   19.6280    7.3490 N.3    75  ARG75      -0.1245
    132  CA        22.9020   19.3550    8.6910 C.3    75  ARG75       0.1563
    133  C         23.3420   20.4450    9.6880 C.2    75  ARG75       0.2260
    134  O         24.3860   21.0770    9.5310 O.2    75  ARG75      -0.2867
    135  CB        23.4160   17.9850    9.1850 C.3    75  ARG75       0.0307
    136  CG        22.8480   16.7690    8.4450 C.3    75  ARG75       0.0489
    137  CD        23.8840   15.6460    8.2870 C.3    75  ARG75       0.2205
    138  NE        25.0580   16.1060    7.5450 N.pl3  75  ARG75      -0.0865
    139  CZ        26.1300   15.3680    7.2630 C.cat  75  ARG75       0.5346
    140  NH1       26.2030   14.1070    7.6560 N.pl3  75  ARG75       0.1354
    141  NH2       27.1400   15.8970    6.5850 N.pl3  75  ARG75       0.1354
    142  N         26.1000   11.6970   17.4570 N.3   123  ILE123     -0.1245
    143  CA        27.0800   10.9850   16.6440 C.3   123  ILE123      0.1561
    144  C         28.4980   10.9160   17.1590 C.2   123  ILE123      0.2260
    145  O         29.3010   10.1210   16.6670 O.2   123  ILE123     -0.2867
    146  CB        27.1910   11.6310   15.2410 C.3   123  ILE123      0.0252
    147  CG1       27.9850   12.9480   15.3360 C.3   123  ILE123      0.0019
    148  CG2       25.8110   11.9340   14.6990 C.3   123  ILE123      0.0019
    149  CD1       28.0670   13.7250   14.0090 C.3   123  ILE123      0.0001
    150  N         28.1280    9.7290   24.2800 N.3   129  TYR129     -0.1241
    151  CA        27.3090    8.5290   24.1920 C.3   129  TYR129      0.1605
    152  C         26.7960    8.1900   25.5790 C.2   129  TYR129      0.2264
    153  O         25.6340    7.8250   25.7440 O.2   129  TYR129     -0.2867
    154  CB        28.1150    7.3480   23.6390 C.3   129  TYR129      0.0534
    155  CG        28.2680    7.3320   22.1270 C.ar  129  TYR129     -0.0201
    156  CD1       27.3370    7.9590   21.2990 C.ar  129  TYR129     -0.0009
    157  CD2       29.3250    6.6470   21.5240 C.ar  129  TYR129     -0.0009
    158  CE1       27.4560    7.9070   19.9080 C.ar  129  TYR129      0.0417
    159  CE2       29.4470    6.5850   20.1450 C.ar  129  TYR129      0.0417
    160  CZ        28.5010    7.2260   19.3400 C.ar  129  TYR129      0.1957
    161  OH        28.6180    7.1770   17.9660 O.3   129  TYR129     -0.2866
    162  N         26.0500    0.0420   13.6180 N.3   144  THR144     -0.1218
    163  CA        26.6890   -0.7300   12.5730 C.3   144  THR144      0.1862
    164  C         27.5750   -1.7190   13.3450 C.2   144  THR144      0.2287
    165  O         28.5940   -1.3330   13.9190 O.2   144  THR144     -0.2866
    166  CB        27.5680    0.1470   11.6440 C.3   144  THR144      0.1770
    167  OG1       26.7560    1.1160   10.9710 O.3   144  THR144     -0.2211
    168  CG2       28.2730   -0.7290   10.6090 C.3   144  THR144      0.0375
@<TRIPOS>BOND
     1    83    82    1
     2    82    81    1
     3   120   122   ar
     4   120   118   ar
     5    81    80    1
     6   122   121   ar
     7   118   117   ar
     8    80    79    1
     9   121   119   ar
    10    52    53    1
    11    79    76    1
    12    35    36    1
    13   117   119   ar
    14   117   116    1
    15    53    56    1
    16    53    54    1
    17    46    47    2
    18    46    45    1
    19    77    78    2
    20    77    76    1
    21   112   113    1
    22   113   116    1
    23   113   114    1
    24    76    75    1
    25    56    57    1
    26    48    50    1
    27    48    45    1
    28    48    49    1
    29    44    45    1
    30    44    37   am
    31    36    37    1
    32    36    39    1
    33    58    57   ar
    34    58    60   ar
    35    54    55    2
    36    54    64   am
    37    37    38    2
    38    75    66   am
    39   141   139    1
    40    57    59   ar
    41   114   115    2
    42    49    51    1
    43    60    62   ar
    44    64    65    1
    45   139   138    2
    46   139   140    1
    47    39    40    1
    48   131   132    1
    49   109   110    1
    50   109   106    1
    51   138   137    1
    52   125   126    2
    53   125   124    1
    54    66    67    2
    55    66    65    1
    56   110   111    1
    57    65    68    1
    58    59    61   ar
    59   108   107    2
    60   137   136    1
    61   124   123    1
    62   124   127    1
    63   107   106    1
    64   136   135    1
    65    62    61   ar
    66    62    63    1
    67    40    41    1
    68   132   135    1
    69   132   133    1
    70   106   105    1
    71    68    69    1
    72    71    69   ar
    73    71    73   ar
    74   111   105    1
    75   127   128    1
    76    41    42   ar
    77    41    43   ar
    78   130   128    1
    79   134   133    2
    80    69    70   ar
    81   105    99   am
    82    73    74   ar
    83   128   129    1
    84   103   101    1
    85   168   166    1
    86    99   100    2
    87    99    98    1
    88    70    72   ar
    89   167   166    1
    90    74    72   ar
    91     8     6    1
    92   166   163    1
    93    98   101    1
    94    98    97    1
    95   101   102    1
    96    33    32    1
    97   163   164    1
    98   163   162    1
    99   102   104    1
   100    94    93    2
   101    30    29    2
   102     6     5    1
   103    97    93   am
   104    31    32    1
   105    31    28    1
   106   164   165    2
   107    20    17    1
   108    93    92    1
   109    32    34    1
   110    29    28    1
   111   149   147    1
   112     5     7    1
   113     5     2    1
   114    28    27    1
   115    17    16    1
   116    17    18    1
   117    27    23   am
   118   148   146    1
   119    12    11    2
   120    92    91    1
   121    92    95    1
   122    16    11   am
   123    25    26    1
   124    25    22    1
   125    96    95    1
   126   146   147    1
   127   146   143    1
   128    11    10    1
   129     2     3    1
   130     2     1    1
   131     9     3   am
   132     9    10    1
   133    87    86    2
   134    18    19    2
   135     3     4    2
   136    23    22    1
   137    23    24    2
   138    10    13    1
   139    22    21    1
   140    90    88    1
   141   143   144    1
   142   143   142    1
   143   145   144    2
   144    86    85    1
   145    13    15    1
   146    13    14    1
   147    85    88    1
   148    85    84    1
   149    88    89    1
   150   161   160    1
   151   160   158   ar
   152   160   159   ar
   153   158   156   ar
   154   159   157   ar
   155   156   155   ar
   156   157   155   ar
   157   155   154    1
   158   154   151    1
   159   151   150    1
   160   151   152    1
   161   152   153    2
