@<TRIPOS>MOLECULE
tmp/2fziA01.pdb
 177 170 0 0 0
SMALL
GASTEIGER

@<TRIPOS>ATOM
      1  N         42.3540   -0.7620   16.6760 N.3    10  ILE10      -0.1231
      2  CA        42.8740   -1.5040   15.5220 C.3    10  ILE10       0.1692
      3  C         44.3350   -1.8460   15.7880 C.2    10  ILE10       0.2592
      4  O         45.1450   -0.9850   16.1410 O.2    10  ILE10      -0.2718
      5  CB        42.6900   -0.7280   14.1800 C.3    10  ILE10       0.0266
      6  CG1       43.1510   -1.6180   13.0220 C.3    10  ILE10       0.0019
      7  CG2       43.4650    0.5860   14.2010 C.3    10  ILE10       0.0020
      8  CD1       42.6300   -1.1910   11.6690 C.3    10  ILE10       0.0001
      9  N         44.6600   -3.1230   15.6230 N.am   11  VAL11      -0.1966
     10  CA        45.9890   -3.5960   15.9280 C.3    11  VAL11       0.1727
     11  C         46.4090   -4.8750   15.1920 C.2    11  VAL11       0.2616
     12  O         45.5750   -5.6950   14.8120 O.2    11  VAL11      -0.2715
     13  CB        46.0650   -3.8500   17.4430 C.3    11  VAL11       0.0290
     14  CG1       45.0640   -4.9340   17.8090 C.3    11  VAL11       0.0023
     15  CG2       47.4620   -4.2230   17.8670 C.3    11  VAL11       0.0023
     16  N         47.7210   -5.0130   15.0170 N.am   12  ALA12      -0.1977
     17  CA        48.3530   -6.1630   14.3810 C.3    12  ALA12       0.1597
     18  C         49.1810   -6.8230   15.4880 C.2    12  ALA12       0.2287
     19  O         50.0720   -6.1960   16.0490 O.2    12  ALA12      -0.2864
     20  CB        49.2650   -5.7070   13.2420 C.3    12  ALA12       0.0319
     21  N         58.9660    0.2010   16.7390 N.3    24  SER24      -0.1202
     22  CA        58.4870   -0.0060   15.3710 C.3    24  SER24       0.2020
     23  C         57.8410   -1.3830   15.2060 C.2    24  SER24       0.2618
     24  O         57.8480   -2.1920   16.1260 O.2    24  SER24      -0.2717
     25  CB        59.6410    0.1430   14.3700 C.3    24  SER24       0.2103
     26  OG        60.5060   -0.9760   14.4090 O.3    24  SER24      -0.2182
     27  N         57.2670   -1.6340   14.0340 N.am   25  LEU25      -0.1979
     28  CA        56.6320   -2.9210   13.7770 C.3    25  LEU25       0.1596
     29  C         57.6990   -3.9530   13.4480 C.2    25  LEU25       0.2287
     30  O         58.4940   -3.7620   12.5270 O.2    25  LEU25      -0.2864
     31  CB        55.6510   -2.8170   12.6120 C.3    25  LEU25       0.0297
     32  CG        54.5200   -1.7980   12.7680 C.3    25  LEU25       0.0022
     33  CD1       53.5930   -1.8960   11.5850 C.3    25  LEU25       0.0001
     34  CD2       53.7520   -2.0760   14.0610 C.3    25  LEU25       0.0001
     35  N         49.1410   -5.4820    4.9530 N.3    32  GLU32      -0.1231
     36  CA        48.5470   -5.2860    6.2700 C.3    32  GLU32       0.1699
     37  C         48.3250   -3.7850    6.4190 C.2    32  GLU32       0.2592
     38  O         47.2230   -3.3280    6.7220 O.2    32  GLU32      -0.2718
     39  CB        49.5110   -5.7700    7.3630 C.3    32  GLU32       0.0402
     40  CG        48.8800   -6.0900    8.7240 C.3    32  GLU32       0.1161
     41  CD        48.2840   -4.8800    9.4260 C.2    32  GLU32       0.3649
     42  OE1       49.0320   -3.8960    9.6360 O.co2  32  GLU32      -0.2457
     43  OE2       47.0800   -4.9270    9.7510 O.co2  32  GLU32      -0.2457
     44  N         49.3900   -3.0220    6.1970 N.am   33  ILE33      -0.1980
     45  CA        49.3050   -1.5720    6.2960 C.3    33  ILE33       0.1595
     46  C         48.2160   -1.0280    5.3760 C.2    33  ILE33       0.2287
     47  O         47.5140   -0.0810    5.7390 O.2    33  ILE33      -0.2864
     48  CB        50.6630   -0.9040    5.9680 C.3    33  ILE33       0.0276
     49  CG1       51.6720   -1.2540    7.0540 C.3    33  ILE33       0.0022
     50  CG2       50.5010    0.6010    5.8940 C.3    33  ILE33       0.0022
     51  CD1       51.2240   -0.8440    8.4350 C.3    33  ILE33       0.0001
     52  N         45.5040   -2.4630    4.6020 N.3    35  TYR35      -0.1227
     53  CA        44.2510   -2.7670    5.2700 C.3    35  TYR35       0.1736
     54  C         43.9880   -1.7080    6.3390 C.2    35  TYR35       0.2595
     55  O         42.8920   -1.1550    6.4510 O.2    35  TYR35      -0.2718
     56  CB        44.3610   -4.1340    5.9450 C.3    35  TYR35       0.0548
     57  CG        43.1880   -4.4840    6.8210 C.ar   35  TYR35      -0.0200
     58  CD1       41.9750   -4.8710    6.2650 C.ar   35  TYR35      -0.0009
     59  CD2       43.2980   -4.4580    8.2110 C.ar   35  TYR35      -0.0009
     60  CE1       40.9020   -5.2340    7.0640 C.ar   35  TYR35       0.0417
     61  CE2       42.2280   -4.8160    9.0210 C.ar   35  TYR35       0.0417
     62  CZ        41.0360   -5.2040    8.4420 C.ar   35  TYR35       0.1957
     63  OH        39.9700   -5.5590    9.2320 O.3    35  TYR35      -0.2866
     64  N         45.0210   -1.4540    7.1290 N.am   36  PHE36      -0.1962
     65  CA        44.9450   -0.4780    8.2030 C.3    36  PHE36       0.1771
     66  C         44.4940    0.8630    7.6510 C.2    36  PHE36       0.2619
     67  O         43.6080    1.5030    8.1940 O.2    36  PHE36      -0.2715
     68  CB        46.3090   -0.3140    8.8550 C.3    36  PHE36       0.0574
     69  CG        46.4160    0.9120    9.7020 C.ar   36  PHE36      -0.0200
     70  CD1       45.7400    0.9930   10.9120 C.ar   36  PHE36      -0.0042
     71  CD2       47.1690    2.0000    9.2750 C.ar   36  PHE36      -0.0042
     72  CE1       45.8140    2.1440   11.6900 C.ar   36  PHE36      -0.0003
     73  CE2       47.2440    3.1570   10.0430 C.ar   36  PHE36      -0.0003
     74  CZ        46.5670    3.2260   11.2550 C.ar   36  PHE36      -0.0000
     75  N         45.1210    1.2820    6.5620 N.am   37  LYS37      -0.1977
     76  CA        44.7620    2.5470    5.9560 C.3    37  LYS37       0.1596
     77  C         43.3270    2.5290    5.4600 C.2    37  LYS37       0.2287
     78  O         42.5780    3.4750    5.6930 O.2    37  LYS37      -0.2864
     79  CB        45.7090    2.8720    4.8040 C.3    37  LYS37       0.0298
     80  CG        45.4070    4.1800    4.1200 C.3    37  LYS37       0.0038
     81  CD        46.4540    4.4920    3.0700 C.3    37  LYS37       0.0206
     82  CE        46.0950    5.7480    2.2900 C.3    37  LYS37       0.1093
     83  NZ        44.7580    5.6590    1.6330 N.3    37  LYS37      -0.1314
     84  N         54.0060    6.1110   19.1570 N.3    61  THR61      -0.1218
     85  CA        53.5090    5.6220   17.8790 C.3    61  THR61       0.1862
     86  C         53.5440    6.7350   16.8550 C.2    61  THR61       0.2287
     87  O         53.8380    6.5060   15.6810 O.2    61  THR61      -0.2866
     88  CB        52.0700    5.0850   18.0210 C.3    61  THR61       0.1770
     89  OG1       52.0890    3.9110   18.8420 O.3    61  THR61      -0.2211
     90  CG2       51.4700    4.7610   16.6720 C.3    61  THR61       0.0375
     91  N         56.9240    7.1210   15.6030 N.3    64  SER64      -0.1202
     92  CA        57.2990    5.9180   14.8720 C.3    64  SER64       0.2020
     93  C         56.8230    5.9440   13.4290 C.2    64  SER64       0.2619
     94  O         57.2770    5.1590   12.6020 O.2    64  SER64      -0.2717
     95  CB        56.7330    4.6860   15.5670 C.3    64  SER64       0.2103
     96  OG        56.8340    3.5480   14.7300 O.3    64  SER64      -0.2182
     97  N         55.9000    6.8450   13.1290 N.am   65  ILE65      -0.1966
     98  CA        55.3710    6.9600   11.7850 C.3    65  ILE65       0.1712
     99  C         56.2680    7.8610   10.9460 C.2    65  ILE65       0.2458
    100  O         56.5230    9.0100   11.3130 O.2    65  ILE65      -0.2730
    101  CB        53.9590    7.5530   11.8070 C.3    65  ILE65       0.0289
    102  CG1       53.0320    6.6350   12.6070 C.3    65  ILE65       0.0022
    103  CG2       53.4630    7.7650   10.3880 C.3    65  ILE65       0.0023
    104  CD1       51.6200    7.1420   12.7270 C.3    65  ILE65       0.0001
    105  N         56.7690    7.3490    9.8100 N.am   66  PRO66      -0.2727
    106  CA        57.6450    8.1050    8.9050 C.3    66  PRO66       0.1402
    107  C         57.0100    9.4220    8.4680 C.2    66  PRO66       0.2269
    108  O         55.8780    9.4410    7.9790 O.2    66  PRO66      -0.2865
    109  CB        57.8310    7.1490    7.7320 C.3    66  PRO66       0.0296
    110  CG        57.7920    5.8160    8.3880 C.3    66  PRO66       0.0237
    111  CD        56.6300    5.9550    9.3560 C.3    66  PRO66       0.0939
    112  N         54.5950    9.7200    5.7720 N.3    69  PHE69      -0.1241
    113  CA        53.2200    9.2580    5.9220 C.3    69  PHE69       0.1605
    114  C         52.5530    9.9220    7.1290 C.2    69  PHE69       0.2264
    115  O         51.4690    9.5210    7.5650 O.2    69  PHE69      -0.2867
    116  CB        53.2140    7.7340    6.0810 C.3    69  PHE69       0.0534
    117  CG        54.0120    7.0090    5.0240 C.ar   69  PHE69      -0.0203
    118  CD1       53.5170    6.8640    3.7320 C.ar   69  PHE69      -0.0042
    119  CD2       55.2710    6.4940    5.3220 C.ar   69  PHE69      -0.0042
    120  CE1       54.2660    6.2150    2.7430 C.ar   69  PHE69      -0.0003
    121  CE2       56.0270    5.8440    4.3400 C.ar   69  PHE69      -0.0003
    122  CZ        55.5220    5.7050    3.0490 C.ar   69  PHE69      -0.0000
    123  N         48.5840   10.9420    9.1650 N.3    72  LEU72      -0.1231
    124  CA        47.7500   10.0340    8.3850 C.3    72  LEU72       0.1693
    125  C         46.6900   10.8260    7.6340 C.2    72  LEU72       0.2591
    126  O         45.7850   11.4090    8.2340 O.2    72  LEU72      -0.2718
    127  CB        47.0980    9.0000    9.3070 C.3    72  LEU72       0.0284
    128  CG        48.0730    8.2470   10.2190 C.3    72  LEU72       0.0019
    129  CD1       47.2990    7.2070   11.0370 C.3    72  LEU72       0.0001
    130  CD2       49.1600    7.5690    9.3920 C.3    72  LEU72       0.0001
    131  N         46.8090   10.8280    6.3120 N.am   73  LYS73      -0.1980
    132  CA        45.9070   11.5730    5.4420 C.3    73  LYS73       0.1596
    133  C         44.4960   11.0400    5.3570 C.2    73  LYS73       0.2287
    134  O         44.2460    9.8310    5.4700 O.2    73  LYS73      -0.2864
    135  CB        46.4780   11.6270    4.0200 C.3    73  LYS73       0.0298
    136  CG        47.9100   12.0990    3.9560 C.3    73  LYS73       0.0038
    137  CD        48.5810   11.6730    2.6610 C.3    73  LYS73       0.0206
    138  CE        50.0930   11.8430    2.7710 C.3    73  LYS73       0.1093
    139  NZ        50.8200   11.2280    1.6250 N.3    73  LYS73      -0.1314
    140  N         42.2560   11.4630    7.4190 N.3    75  ARG75      -0.1245
    141  CA        41.7880   11.1540    8.7710 C.3    75  ARG75       0.1563
    142  C         42.2490   12.2240    9.7660 C.2    75  ARG75       0.2260
    143  O         43.3510   12.7630    9.6530 O.2    75  ARG75      -0.2867
    144  CB        42.3300    9.7890    9.2230 C.3    75  ARG75       0.0307
    145  CG        41.7220    8.5770    8.5240 C.3    75  ARG75       0.0489
    146  CD        42.7390    7.4440    8.4410 C.3    75  ARG75       0.2205
    147  NE        43.9010    7.8730    7.6650 N.pl3  75  ARG75      -0.0865
    148  CZ        44.9990    7.1520    7.4570 C.cat  75  ARG75       0.5346
    149  NH1       45.1160    5.9320    7.9680 N.pl3  75  ARG75       0.1354
    150  NH2       45.9850    7.6630    6.7260 N.pl3  75  ARG75       0.1354
    151  N         44.6460    3.7150   17.2920 N.3   123  ILE123     -0.1245
    152  CA        45.5660    2.9610   16.4350 C.3   123  ILE123      0.1561
    153  C         46.9280    2.6330   16.9830 C.2   123  ILE123      0.2260
    154  O         47.7690    2.0630   16.2850 O.2   123  ILE123     -0.2867
    155  CB        45.8040    3.6800   15.1080 C.3   123  ILE123      0.0252
    156  CG1       46.6200    4.9520   15.3540 C.3   123  ILE123      0.0019
    157  CG2       44.4910    4.0070   14.4400 C.3   123  ILE123      0.0019
    158  CD1       46.9320    5.7550   14.0840 C.3   123  ILE123      0.0001
    159  N         46.5630    1.6590   24.2010 N.3   129  TYR129     -0.1241
    160  CA        45.6860    0.4780   24.0480 C.3   129  TYR129      0.1605
    161  C         45.1940    0.0340   25.4190 C.2   129  TYR129      0.2264
    162  O         44.0620   -0.4160   25.5810 O.2   129  TYR129     -0.2867
    163  CB        46.4280   -0.7220   23.4340 C.3   129  TYR129      0.0534
    164  CG        46.6400   -0.7130   21.9250 C.ar  129  TYR129     -0.0201
    165  CD1       45.7050   -0.1450   21.0620 C.ar  129  TYR129     -0.0009
    166  CD2       47.7740   -1.3060   21.3670 C.ar  129  TYR129     -0.0009
    167  CE1       45.8910   -0.1650   19.6620 C.ar  129  TYR129      0.0417
    168  CE2       47.9710   -1.3330   19.9790 C.ar  129  TYR129      0.0417
    169  CZ        47.0240   -0.7600   19.1340 C.ar  129  TYR129      0.1957
    170  OH        47.1830   -0.7740   17.7560 O.3   129  TYR129     -0.2866
    171  N         44.6240   -8.0120   13.4490 N.3   144  THR144     -0.1218
    172  CA        45.3030   -8.7350   12.3950 C.3   144  THR144      0.1862
    173  C         46.1860   -9.7220   13.1640 C.2   144  THR144      0.2287
    174  O         47.1690   -9.3310   13.8090 O.2   144  THR144     -0.2866
    175  CB        46.2000   -7.8200   11.5230 C.3   144  THR144      0.1770
    176  OG1       45.3890   -6.8480   10.8510 O.3   144  THR144     -0.2211
    177  CG2       46.9440   -8.6660   10.4840 C.3   144  THR144      0.0375
@<TRIPOS>BOND
     1   139   138    1
     2    83    82    1
     3    82    81    1
     4   137   138    1
     5   137   136    1
     6   120   122   ar
     7   120   118   ar
     8   122   121   ar
     9    81    80    1
    10   118   117   ar
    11   136   135    1
    12   135   132    1
    13    80    79    1
    14   121   119   ar
    15    52    53    1
    16    79    76    1
    17    35    36    1
    18   117   119   ar
    19   117   116    1
    20    53    56    1
    21    53    54    1
    22   133   132    1
    23   133   134    2
    24    46    47    2
    25    46    45    1
    26   132   131    1
    27    77    78    2
    28    77    76    1
    29   112   113    1
    30    50    48    1
    31   113   116    1
    32   113   114    1
    33    56    57    1
    34    76    75    1
    35    48    45    1
    36    48    49    1
    37    44    45    1
    38    44    37   am
    39    58    57   ar
    40    58    60   ar
    41    36    37    1
    42    36    39    1
    43   131   125   am
    44    54    55    2
    45    54    64   am
    46    37    38    2
    47    75    66   am
    48   150   148    1
    49    57    59   ar
    50    49    51    1
    51    60    62   ar
    52   114   115    2
    53    64    65    1
    54    39    40    1
    55   140   141    1
    56   148   147    2
    57   148   149    1
    58   125   126    2
    59   125   124    1
    60    66    67    2
    61    66    65    1
    62   147   146    1
    63   109   110    1
    64   109   106    1
    65   108   107    2
    66    65    68    1
    67    59    61   ar
    68   124   123    1
    69   124   127    1
    70   110   111    1
    71   146   145    1
    72    62    61   ar
    73    62    63    1
    74   107   106    1
    75   145   144    1
    76    40    41    1
    77   141   144    1
    78   141   142    1
    79    68    69    1
    80   106   105    1
    81    71    69   ar
    82    71    73   ar
    83   127   128    1
    84   111   105    1
    85   130   128    1
    86    41    42   ar
    87    41    43   ar
    88   143   142    2
    89    69    70   ar
    90   105    99   am
    91    73    74   ar
    92   128   129    1
    93   103   101    1
    94   177   175    1
    95   176   175    1
    96    70    72   ar
    97    99   100    2
    98    99    98    1
    99    74    72   ar
   100   175   172    1
   101    33    32    1
   102     8     6    1
   103    98   101    1
   104    98    97    1
   105   101   102    1
   106   172   173    1
   107   172   171    1
   108    30    29    2
   109    94    93    2
   110   102   104    1
   111    31    32    1
   112    31    28    1
   113    32    34    1
   114     6     5    1
   115    97    93   am
   116   173   174    2
   117    20    17    1
   118    93    92    1
   119    29    28    1
   120    28    27    1
   121    27    23   am
   122   158   156    1
   123     5     7    1
   124     5     2    1
   125    25    26    1
   126    25    22    1
   127    17    16    1
   128    17    18    1
   129   157   155    1
   130    96    95    1
   131    12    11    2
   132    92    95    1
   133    92    91    1
   134    16    11   am
   135   155   156    1
   136   155   152    1
   137    11    10    1
   138    23    22    1
   139    23    24    2
   140    22    21    1
   141    18    19    2
   142     2     3    1
   143     2     1    1
   144     9     3   am
   145     9    10    1
   146    87    86    2
   147     3     4    2
   148    10    13    1
   149   154   153    2
   150   152   153    1
   151   152   151    1
   152    90    88    1
   153    86    85    1
   154    13    14    1
   155    13    15    1
   156   170   169    1
   157    85    88    1
   158    85    84    1
   159    88    89    1
   160   169   167   ar
   161   169   168   ar
   162   167   165   ar
   163   168   166   ar
   164   165   164   ar
   165   166   164   ar
   166   164   163    1
   167   163   160    1
   168   160   159    1
   169   160   161    1
   170   161   162    2
