@<TRIPOS>MOLECULE
tmp/2fzjA01.pdb
 189 182 0 0 0
SMALL
GASTEIGER

@<TRIPOS>ATOM
      1  N         -4.2420   -0.9680   10.6550 N.3     7  ILE7       -0.1231
      2  CA        -3.6680   -2.2330   11.0960 C.3     7  ILE7        0.1692
      3  C         -2.9190   -2.0340   12.4070 C.2     7  ILE7        0.2592
      4  O         -2.0780   -1.1360   12.5380 O.2     7  ILE7       -0.2718
      5  CB        -2.7260   -2.8620   10.0510 C.3     7  ILE7        0.0266
      6  CG1       -2.2260   -4.2070   10.5870 C.3     7  ILE7        0.0019
      7  CG2       -1.5520   -1.9510    9.7680 C.3     7  ILE7        0.0020
      8  CD1       -1.8290   -5.1800    9.5000 C.3     7  ILE7        0.0001
      9  N         -3.2310   -2.8770   13.3810 N.am    8  VAL8       -0.1966
     10  CA        -2.6140   -2.7520   14.6880 C.3     8  VAL8        0.1727
     11  C         -2.5810   -4.0800   15.4410 C.2     8  VAL8        0.2616
     12  O         -3.2070   -5.0680   15.0330 O.2     8  VAL8       -0.2715
     13  CB        -3.3880   -1.6960   15.5240 C.3     8  VAL8        0.0290
     14  CG1       -4.8050   -2.1810   15.7770 C.3     8  VAL8        0.0023
     15  CG2       -2.6800   -1.4120   16.8250 C.3     8  VAL8        0.0023
     16  N         -1.8190   -4.0870   16.5300 N.am    9  ALA9       -0.1977
     17  CA        -1.6940   -5.2450   17.4080 C.3     9  ALA9        0.1597
     18  C         -1.9270   -4.6720   18.7960 C.2     9  ALA9        0.2287
     19  O         -1.2430   -3.7290   19.1830 O.2     9  ALA9       -0.2864
     20  CB        -0.2950   -5.8470   17.3160 C.3     9  ALA9        0.0319
     21  N          8.1970    4.1770   24.0320 N.3    20  GLY20      -0.1210
     22  CA         8.7980    4.3480   22.7210 C.3    20  GLY20       0.1956
     23  C          8.8890    3.0850   21.8870 C.2    20  GLY20       0.2612
     24  O          9.2950    3.1300   20.7220 O.2    20  GLY20      -0.2717
     25  N          8.5220    1.9550   22.4790 N.am   21  ASP21      -0.1959
     26  CA         8.5560    0.6850   21.7680 C.3    21  ASP21       0.1840
     27  C          7.2960   -0.1110   22.0800 C.2    21  ASP21       0.2621
     28  O          6.3570    0.4070   22.6710 O.2    21  ASP21      -0.2715
     29  CB         9.7880   -0.1280   22.1750 C.3    21  ASP21       0.1450
     30  CG        11.0790    0.6540   22.0240 C.2    21  ASP21       0.3671
     31  OD1       11.3270    1.1940   20.9240 O.co2  21  ASP21      -0.2456
     32  OD2       11.8470    0.7290   23.0080 O.co2  21  ASP21      -0.2456
     33  N          7.2880   -1.3740   21.6740 N.am   22  LEU22      -0.1977
     34  CA         6.1510   -2.2570   21.9140 C.3    22  LEU22       0.1596
     35  C          6.1950   -2.6730   23.3870 C.2    22  LEU22       0.2287
     36  O          7.2700   -2.7740   23.9720 O.2    22  LEU22      -0.2864
     37  CB         6.2440   -3.4810   20.9870 C.3    22  LEU22       0.0297
     38  CG         6.3150   -3.1670   19.4810 C.3    22  LEU22       0.0022
     39  CD1        6.3750   -4.4530   18.6740 C.3    22  LEU22       0.0001
     40  CD2        5.0990   -2.3540   19.0670 C.3    22  LEU22       0.0001
     41  N          9.6600   -8.7710   21.3010 N.3    26  PRO26      -0.2116
     42  CA         9.5430   -8.9280   19.8490 C.3    26  PRO26       0.1372
     43  C          8.8340  -10.2200   19.4260 C.2    26  PRO26       0.2244
     44  O          9.2760  -11.3220   19.7620 O.2    26  PRO26      -0.2868
     45  CB        10.9950   -8.8980   19.3830 C.3    26  PRO26       0.0268
     46  CG        11.6720   -8.0430   20.4240 C.3    26  PRO26       0.0207
     47  CD        11.0630   -8.5590   21.6950 C.3    26  PRO26       0.0892
     48  N          4.4880  -12.1220   14.2910 N.3    30  GLU30      -0.1231
     49  CA         3.4480  -11.1040   14.1950 C.3    30  GLU30       0.1699
     50  C          3.8900  -10.0140   13.2140 C.2    30  GLU30       0.2592
     51  O          3.0500   -9.4420   12.5030 O.2    30  GLU30      -0.2718
     52  CB         3.1600  -10.4960   15.5770 C.3    30  GLU30       0.0402
     53  CG         1.7430   -9.9220   15.7200 C.3    30  GLU30       0.1161
     54  CD         1.5680   -8.5830   15.0260 C.2    30  GLU30       0.3649
     55  OE1        0.4870   -8.3590   14.4320 O.co2  30  GLU30      -0.2457
     56  OE2        2.4960   -7.7530   15.0880 O.co2  30  GLU30      -0.2457
     57  N          5.1960   -9.7260   13.1830 N.am   31  PHE31      -0.1976
     58  CA         5.7510   -8.7260   12.2660 C.3    31  PHE31       0.1639
     59  C          5.6110   -9.2400   10.8310 C.2    31  PHE31       0.2290
     60  O          5.4620   -8.4590    9.8900 O.2    31  PHE31      -0.2864
     61  CB         7.2470   -8.4740   12.5240 C.3    31  PHE31       0.0560
     62  CG         7.5430   -7.7170   13.7910 C.ar   31  PHE31      -0.0200
     63  CD1        6.7560   -6.6360   14.1830 C.ar   31  PHE31      -0.0042
     64  CD2        8.6440   -8.0600   14.5790 C.ar   31  PHE31      -0.0042
     65  CE1        7.0660   -5.9090   15.3400 C.ar   31  PHE31      -0.0003
     66  CE2        8.9540   -7.3450   15.7210 C.ar   31  PHE31      -0.0003
     67  CZ         8.1690   -6.2720   16.1050 C.ar   31  PHE31      -0.0000
     68  N          3.1570  -10.9970    9.5890 N.3    33  TYR33      -0.1227
     69  CA         1.7690  -10.7320    9.1740 C.3    33  TYR33       0.1736
     70  C          1.5900   -9.2540    8.8510 C.2    33  TYR33       0.2595
     71  O          1.0130   -8.9020    7.8170 O.2    33  TYR33      -0.2718
     72  CB         0.7850  -11.1570   10.2800 C.3    33  TYR33       0.0548
     73  CG        -0.6680  -10.7810   10.0340 C.ar   33  TYR33      -0.0200
     74  CD1       -1.2100   -9.5980   10.5530 C.ar   33  TYR33      -0.0009
     75  CD2       -1.4960  -11.5970    9.2650 C.ar   33  TYR33      -0.0009
     76  CE1       -2.5480   -9.2420   10.3040 C.ar   33  TYR33       0.0417
     77  CE2       -2.8360  -11.2480    9.0140 C.ar   33  TYR33       0.0417
     78  CZ        -3.3460  -10.0780    9.5340 C.ar   33  TYR33       0.1957
     79  OH        -4.6580   -9.7690    9.2690 O.3    33  TYR33      -0.2866
     80  N          2.0800   -8.3850    9.7300 N.am   34  PHE34      -0.1962
     81  CA         1.9880   -6.9480    9.4770 C.3    34  PHE34       0.1771
     82  C          2.6410   -6.6320    8.1400 C.2    34  PHE34       0.2619
     83  O          2.0880   -5.8920    7.3200 O.2    34  PHE34      -0.2715
     84  CB         2.7050   -6.1700   10.5830 C.3    34  PHE34       0.0574
     85  CG         3.0730   -4.7680   10.2030 C.ar   34  PHE34      -0.0200
     86  CD1        2.1150   -3.7590   10.1820 C.ar   34  PHE34      -0.0042
     87  CD2        4.3890   -4.4500    9.8790 C.ar   34  PHE34      -0.0042
     88  CE1        2.4680   -2.4460    9.8480 C.ar   34  PHE34      -0.0003
     89  CE2        4.7490   -3.1460    9.5450 C.ar   34  PHE34      -0.0003
     90  CZ         3.7880   -2.1430    9.5310 C.ar   34  PHE34      -0.0000
     91  N          3.8300   -7.1920    7.9360 N.am   35  GLN35      -0.1977
     92  CA         4.6110   -6.9980    6.7250 C.3    35  GLN35       0.1601
     93  C          3.9010   -7.4980    5.4580 C.2    35  GLN35       0.2287
     94  O          3.8510   -6.7910    4.4510 O.2    35  GLN35      -0.2864
     95  CB         5.9730   -7.6890    6.8880 C.3    35  GLN35       0.0394
     96  CG         6.8710   -7.6760    5.6670 C.3    35  GLN35       0.0908
     97  CD         8.2700   -8.2070    5.9740 C.2    35  GLN35       0.2608
     98  OE1        9.0630   -7.5510    6.6590 O.2    35  GLN35      -0.2717
     99  NE2        8.5750   -9.4020    5.4770 N.am   35  GLN35      -0.0878
    100  N          5.8570    6.9320   15.6720 N.3    56  THR56      -0.1218
    101  CA         5.9290    5.5500   15.1830 C.3    56  THR56       0.1862
    102  C          7.1340    5.3760   14.2560 C.2    56  THR56       0.2287
    103  O          7.8950    4.4100   14.3820 O.2    56  THR56      -0.2866
    104  CB         4.6100    5.1440   14.4720 C.3    56  THR56       0.1770
    105  OG1        3.5630    5.0500   15.4510 O.3    56  THR56      -0.2211
    106  CG2        4.7620    3.8090   13.7450 C.3    56  THR56       0.0375
    107  N         10.3790    5.2370   16.0940 N.3    59  SER59      -0.1202
    108  CA        10.3860    4.1240   17.0360 C.3    59  SER59       0.2020
    109  C         10.7460    2.8540   16.2750 C.2    59  SER59       0.2619
    110  O         11.1580    1.8560   16.8580 O.2    59  SER59      -0.2717
    111  CB         9.0180    3.9610   17.7000 C.3    59  SER59       0.2103
    112  OG         8.0170    3.6790   16.7390 O.3    59  SER59      -0.2182
    113  N         10.5830    2.8900   14.9610 N.am   60  ILE60      -0.1966
    114  CA        10.9300    1.7300   14.1590 C.3    60  ILE60       0.1712
    115  C         12.4450    1.7080   13.9560 C.2    60  ILE60       0.2458
    116  O         13.0380    2.7170   13.5650 O.2    60  ILE60      -0.2730
    117  CB        10.2260    1.7720   12.7990 C.3    60  ILE60       0.0289
    118  CG1        8.7170    1.6290   12.9910 C.3    60  ILE60       0.0022
    119  CG2       10.7440    0.6610   11.9120 C.3    60  ILE60       0.0023
    120  CD1        7.9390    1.6880   11.7030 C.3    60  ILE60       0.0001
    121  N         13.0930    0.5610   14.2400 N.am   61  PRO61      -0.2727
    122  CA        14.5460    0.4310   14.0780 C.3    61  PRO61       0.1402
    123  C         14.9990    1.0380   12.7560 C.2    61  PRO61       0.2269
    124  O         14.3870    0.8020   11.7220 O.2    61  PRO61      -0.2865
    125  CB        14.7620   -1.0790   14.1110 C.3    61  PRO61       0.0296
    126  CG        13.7140   -1.5340   15.0500 C.3    61  PRO61       0.0237
    127  CD        12.4990   -0.7270   14.6480 C.3    61  PRO61       0.0939
    128  N         15.2760   -0.9600    9.7250 N.3    64  ASN64      -0.1240
    129  CA        14.0230   -1.3650    9.0880 C.3    64  ASN64       0.1653
    130  C         13.2830   -0.1640    8.5030 C.2    64  ASN64       0.2266
    131  O         12.1240   -0.2730    8.0930 O.2    64  ASN64      -0.2867
    132  CB        13.1180   -2.0940   10.0900 C.3    64  ASN64       0.1155
    133  CG        13.7140   -3.4130   10.5670 C.2    64  ASN64       0.2627
    134  OD1       13.9170   -4.3380    9.7810 O.2    64  ASN64      -0.2716
    135  ND2       13.9990   -3.5000   11.8580 N.am   64  ASN64      -0.0877
    136  N          9.8810    1.4160    5.5580 N.3    67  LEU67      -0.1231
    137  CA         9.2480    0.1130    5.3670 C.3    67  LEU67       0.1693
    138  C          9.3360   -0.1690    3.8700 C.2    67  LEU67       0.2591
    139  O          8.5800    0.3830    3.0630 O.2    67  LEU67      -0.2718
    140  CB         7.7890    0.1430    5.8300 C.3    67  LEU67       0.0284
    141  CG         7.6010    0.5620    7.2930 C.3    67  LEU67       0.0019
    142  CD1        6.1160    0.5610    7.6790 C.3    67  LEU67       0.0001
    143  CD2        8.3790   -0.3820    8.1810 C.3    67  LEU67       0.0001
    144  N         10.3020   -1.0110    3.5220 N.am   68  LYS68      -0.1980
    145  CA        10.5870   -1.3970    2.1490 C.3    68  LYS68       0.1596
    146  C          9.4030   -1.8340    1.3110 C.2    68  LYS68       0.2287
    147  O          8.4450   -2.4110    1.8120 O.2    68  LYS68      -0.2864
    148  CB        11.6220   -2.5160    2.1450 C.3    68  LYS68       0.0298
    149  CG        11.6110   -3.3180    3.4300 C.3    68  LYS68       0.0038
    150  CD        12.4910   -2.6070    4.4630 C.3    68  LYS68       0.0206
    151  CE        12.2070   -3.0340    5.8960 C.3    68  LYS68       0.1093
    152  NZ        10.9850   -2.4070    6.4520 N.3    68  LYS68      -0.1314
    153  N          7.1180   -0.2610    0.1730 N.3    70  ARG70      -0.1245
    154  CA         5.8970    0.4640    0.4920 C.3    70  ARG70       0.1563
    155  C          6.1930    1.9530    0.4300 C.2    70  ARG70       0.2260
    156  O          7.2970    2.3770    0.7490 O.2    70  ARG70      -0.2867
    157  CB         5.4050    0.1060    1.9000 C.3    70  ARG70       0.0307
    158  CG         4.5170   -1.1340    1.9730 C.3    70  ARG70       0.0489
    159  CD         4.6640   -1.8380    3.3120 C.3    70  ARG70       0.2205
    160  NE         6.0240   -2.3390    3.5110 N.pl3  70  ARG70      -0.0865
    161  CZ         6.4370   -2.9610    4.6130 C.cat  70  ARG70       0.5346
    162  NH1        5.6060   -3.1600    5.6230 N.pl3  70  ARG70       0.1354
    163  NH2        7.6890   -3.3950    4.6990 N.pl3  70  ARG70       0.1354
    164  N         -0.7090    2.6660    9.9120 N.3   115  VAL115     -0.1245
    165  CA         0.0610    1.7400   10.7540 C.3   115  VAL115      0.1561
    166  C          0.6360    2.2460   12.0790 C.2   115  VAL115      0.2260
    167  O          1.3520    1.5220   12.7600 O.2   115  VAL115     -0.2867
    168  CB         1.2580    1.1680    9.9730 C.3   115  VAL115      0.0252
    169  CG1        0.8110    0.6460    8.6020 C.3   115  VAL115      0.0019
    170  CG2        2.3130    2.2410    9.8070 C.3   115  VAL115      0.0019
    171  N         -4.9170    6.6670   14.4720 N.3   121  TYR121     -0.1241
    172  CA        -5.9600    5.6460   14.4280 C.3   121  TYR121      0.1605
    173  C         -7.3050    6.3340   14.7090 C.2   121  TYR121      0.2264
    174  O         -8.3030    6.0810   14.0370 O.2   121  TYR121     -0.2867
    175  CB        -5.7070    4.5760   15.4980 C.3   121  TYR121      0.0534
    176  CG        -4.5950    3.5850   15.2050 C.ar  121  TYR121     -0.0201
    177  CD1       -3.6820    3.2200   16.1990 C.ar  121  TYR121     -0.0009
    178  CD2       -4.4790    2.9820   13.9480 C.ar  121  TYR121     -0.0009
    179  CE1       -2.6760    2.2740   15.9520 C.ar  121  TYR121      0.0417
    180  CE2       -3.4670    2.0290   13.6900 C.ar  121  TYR121      0.0417
    181  CZ        -2.5780    1.6870   14.6970 C.ar  121  TYR121      0.1957
    182  OH        -1.5980    0.7570   14.4480 O.3   121  TYR121     -0.2866
    183  N         -4.7890   -7.3510   15.5250 N.3   136  THR136     -0.1218
    184  CA        -4.1650   -8.5660   16.0440 C.3   136  THR136      0.1862
    185  C         -4.4560   -8.5690   17.5440 C.2   136  THR136      0.2287
    186  O         -3.9990   -7.6830   18.2780 O.2   136  THR136     -0.2866
    187  CB        -2.6360   -8.5740   15.8350 C.3   136  THR136      0.1770
    188  OG1       -2.3450   -8.6320   14.4420 O.3   136  THR136     -0.2211
    189  CG2       -2.0080   -9.8010   16.5100 C.3   136  THR136      0.0375
@<TRIPOS>BOND
     1   153   154    1
     2   155   154    1
     3   155   156    2
     4   154   157    1
     5   146   147    2
     6   146   145    1
     7   157   158    1
     8   158   159    1
     9   148   145    1
    10   148   149    1
    11   145   144    1
    12   139   138    2
    13   159   160    1
    14   149   150    1
    15   160   161    2
    16   144   138   am
    17   138   137    1
    18    94    93    2
    19   150   151    1
    20   161   163    1
    21   161   162    1
    22   137   136    1
    23   137   140    1
    24    93    92    1
    25    99    97   am
    26    96    97    1
    27    96    95    1
    28   140   141    1
    29   151   152    1
    30    97    98    2
    31    92    95    1
    32    92    91    1
    33   141   142    1
    34   141   143    1
    35    83    82    2
    36    71    70    2
    37    91    82   am
    38   131   130    2
    39    82    81    1
    40   130   129    1
    41   169   168    1
    42    70    69    1
    43    70    80   am
    44    77    75   ar
    45    77    78   ar
    46   129   128    1
    47   129   132    1
    48    69    68    1
    49    69    72    1
    50    75    73   ar
    51    79    78    1
    52    81    80    1
    53    81    84    1
    54     8     6    1
    55    90    89   ar
    56    90    88   ar
    57    78    76   ar
    58    89    87   ar
    59     7     5    1
    60   134   133    2
    61   170   168    1
    62    88    86   ar
    63    87    85   ar
    64    60    59    2
    65   164   165    1
    66   168   165    1
    67    73    72    1
    68    73    74   ar
    69     5     6    1
    70     5     2    1
    71   132   133    1
    72    86    85   ar
    73    85    84    1
    74    76    74   ar
    75   133   135   am
    76     1     2    1
    77   165   166    1
    78    59    58    1
    79     2     3    1
    80   120   118    1
    81   124   123    2
    82   119   117    1
    83   166   167    2
    84    58    61    1
    85    58    57    1
    86     3     4    2
    87     3     9   am
    88    51    50    2
    89    61    62    1
    90   123   122    1
    91   117   118    1
    92   117   114    1
    93    57    50   am
    94    50    49    1
    95     9    10    1
    96   116   115    2
    97   180   178   ar
    98   180   181   ar
    99   106   104    1
   100    62    63   ar
   101    62    64   ar
   102   178   176   ar
   103   115   114    1
   104   115   121   am
   105   174   173    2
   106   122   125    1
   107   122   121    1
   108   125   126    1
   109   114   113    1
   110    63    65   ar
   111    49    48    1
   112    49    52    1
   113   121   127    1
   114   102   103    2
   115   102   101    1
   116   172   171    1
   117   172   173    1
   118   172   175    1
   119    55    54   ar
   120   188   187    1
   121   182   181    1
   122   104   101    1
   123   104   105    1
   124    64    66   ar
   125   127   126    1
   126    10    11    1
   127    10    13    1
   128   181   179   ar
   129   113   109   am
   130    54    56   ar
   131    54    53    1
   132    12    11    2
   133   101   100    1
   134   176   175    1
   135   176   177   ar
   136    65    67   ar
   137    11    16   am
   138    13    14    1
   139    13    15    1
   140   183   184    1
   141    52    53    1
   142    66    67   ar
   143   187   184    1
   144   187   189    1
   145   179   177   ar
   146   184   185    1
   147   107   108    1
   148   109   110    2
   149   109   108    1
   150    16    17    1
   151   112   111    1
   152   108   111    1
   153    20    17    1
   154    17    18    1
   155   185   186    2
   156    39    38    1
   157    18    19    2
   158    40    38    1
   159    45    42    1
   160    45    46    1
   161    43    44    2
   162    43    42    1
   163    38    37    1
   164    42    41    1
   165    46    47    1
   166    24    23    2
   167    31    30   ar
   168    37    34    1
   169    41    47    1
   170    33    34    1
   171    33    27   am
   172    26    27    1
   173    26    29    1
   174    26    25    1
   175    23    25   am
   176    23    22    1
   177    34    35    1
   178    30    29    1
   179    30    32   ar
   180    27    28    2
   181    22    21    1
   182    35    36    2
