@<TRIPOS>MOLECULE
tmp/2fzkA00.pdb
 165 156 0 0 0
SMALL
GASTEIGER

@<TRIPOS>ATOM
      1  N         49.6220   33.1720   18.5600 N.3    52  SER52      -0.1217
      2  CA        48.6990   32.1800   17.9880 C.3    52  SER52       0.1889
      3  C         49.4370   31.4740   16.8580 C.2    52  SER52       0.2288
      4  O         49.3060   31.8010   15.6760 O.2    52  SER52      -0.2866
      5  CB        47.4330   32.8370   17.4370 C.3    52  SER52       0.2089
      6  OG        46.6480   31.9170   16.6870 O.3    52  SER52      -0.2183
      7  N         49.1820   28.4470   15.3560 N.3    54  ARG54      -0.1231
      8  CA        48.4450   27.7700   14.2880 C.3    54  ARG54       0.1694
      9  C         47.8180   28.6920   13.2480 C.2    54  ARG54       0.2592
     10  O         47.7020   28.3070   12.0550 O.2    54  ARG54      -0.2718
     11  CB        47.3550   26.8830   14.8840 C.3    54  ARG54       0.0321
     12  CG        46.3840   26.3420   13.8500 C.3    54  ARG54       0.0489
     13  CD        45.0740   25.7750   14.4550 C.3    54  ARG54       0.2205
     14  NE        45.2850   24.5390   15.2150 N.pl3  54  ARG54      -0.0865
     15  CZ        45.3710   24.4670   16.5500 C.cat  54  ARG54       0.5346
     16  NH1       45.5620   23.2830   17.1300 N.pl3  54  ARG54       0.1354
     17  NH2       45.2550   25.5660   17.3090 N.pl3  54  ARG54       0.1354
     18  N         47.4270   29.9020   13.6890 N.am   55  THR55      -0.1953
     19  CA        46.7930   30.8910   12.8010 C.3    55  THR55       0.1897
     20  C         47.8430   31.7000   12.0890 C.2    55  THR55       0.2313
     21  O         47.7360   32.0660   10.9110 O.2    55  THR55      -0.2863
     22  CB        45.8790   31.8280   13.5970 C.3    55  THR55       0.1794
     23  OG1       44.9270   31.0410   14.3200 O.3    55  THR55      -0.2208
     24  CG2       45.1070   32.7490   12.6680 C.3    55  THR55       0.0378
     25  N         49.2700   29.3720    9.4660 N.3    58  SER58      -0.1217
     26  CA        48.3020   29.2080    8.3940 C.3    58  SER58       0.1889
     27  C         48.2840   30.4330    7.4420 C.2    58  SER58       0.2288
     28  O         48.5360   30.3210    6.2490 O.2    58  SER58      -0.2866
     29  CB        46.8930   28.9610    8.9910 C.3    58  SER58       0.2089
     30  OG        45.9370   28.8750    7.9490 O.3    58  SER58      -0.2183
     31  N         46.7090   40.0430   15.2150 N.3   105  ARG105     -0.1245
     32  CA        45.9810   39.3930   16.2790 C.3   105  ARG105      0.1563
     33  C         46.3290   40.2230   17.4860 C.2   105  ARG105      0.2260
     34  O         47.4910   40.5270   17.6990 O.2   105  ARG105     -0.2867
     35  CB        46.4350   37.9440   16.4490 C.3   105  ARG105      0.0307
     36  CG        45.6800   37.1690   17.5270 C.3   105  ARG105      0.0489
     37  CD        45.2740   35.8410   17.0120 C.3   105  ARG105      0.2205
     38  NE        45.0680   34.8640   18.0770 N.pl3 105  ARG105     -0.0865
     39  CZ        44.1990   33.8630   17.9970 C.cat 105  ARG105      0.5346
     40  NH1       43.4330   33.7040   16.9080 N.pl3 105  ARG105      0.1354
     41  NH2       44.1070   33.0060   19.0040 N.pl3 105  ARG105      0.1354
     42  N         36.8220   37.1400   14.8580 N.3   134  HIS134     -0.1241
     43  CA        37.8400   36.2300   14.3300 C.3   134  HIS134      0.1621
     44  C         37.1850   35.7250   13.0470 C.2   134  HIS134      0.2264
     45  O         36.8350   34.5290   12.9240 O.2   134  HIS134     -0.2867
     46  CB        38.0970   35.0590   15.2750 C.3   134  HIS134      0.0745
     47  CG        39.3060   34.2500   14.9200 C.ar  134  HIS134      0.0817
     48  ND1       39.7170   33.1620   15.6560 N.ar  134  HIS134     -0.2268
     49  CD2       40.2280   34.4110   13.9460 C.ar  134  HIS134      0.1154
     50  CE1       40.8450   32.6940   15.1580 C.ar  134  HIS134      0.1986
     51  NE2       41.1780   33.4360   14.1180 N.ar  134  HIS134     -0.2212
     52  N         38.4420   32.6740   10.5630 N.3   137  GLN137     -0.1245
     53  CA        38.1150   31.3490   11.1710 C.3   137  GLN137      0.1566
     54  C         36.7100   30.8740   10.7720 C.2   137  GLN137      0.2260
     55  O         36.4820   29.6840   10.4890 O.2   137  GLN137     -0.2867
     56  CB        38.1670   31.4360   12.7110 C.3   137  GLN137      0.0367
     57  CG        37.5850   30.2620   13.4040 C.3   137  GLN137      0.0905
     58  CD        38.3070   28.9910   13.0270 C.2   137  GLN137      0.2608
     59  OE1       37.7710   28.0900   12.3600 O.2   137  GLN137     -0.2717
     60  NE2       39.5460   28.9130   13.4400 N.am  137  GLN137     -0.0878
     61  N         36.6800   29.8820    6.9450 N.3   140  LEU140     -0.1245
     62  CA        37.1520   28.5240    6.6600 C.3   140  LEU140      0.1561
     63  C         36.1220   27.5070    7.2150 C.2   140  LEU140      0.2260
     64  O         35.9510   26.4250    6.6590 O.2   140  LEU140     -0.2867
     65  CB        38.5610   28.3140    7.2690 C.3   140  LEU140      0.0270
     66  CG        38.7550   27.9660    8.7620 C.3   140  LEU140      0.0019
     67  CD1       38.6560   26.4440    8.9630 C.3   140  LEU140      0.0001
     68  CD2       40.0860   28.5130    9.2620 C.3   140  LEU140      0.0001
     69  N         33.1240   30.9480   23.5470 N.3   166  GLY166     -0.1210
     70  CA        33.7390   30.7450   22.2470 C.3   166  GLY166      0.1956
     71  C         33.3710   31.8010   21.2370 C.2   166  GLY166      0.2612
     72  O         32.2070   31.8960   20.8830 O.2   166  GLY166     -0.2717
     73  N         34.3490   32.5790   20.7510 N.am  167  ARG167     -0.1965
     74  CA        34.0330   33.6370   19.7750 C.3   167  ARG167      0.1729
     75  C         33.7180   33.0730   18.3900 C.2   167  ARG167      0.2616
     76  O         32.8690   33.6260   17.6590 O.2   167  ARG167     -0.2715
     77  CB        35.1660   34.6770   19.6650 C.3   167  ARG167      0.0348
     78  CG        36.3980   34.1820   18.9310 C.3   167  ARG167      0.0492
     79  CD        37.5910   35.0910   19.1450 C.3   167  ARG167      0.2205
     80  NE        38.8150   34.3260   19.0280 N.pl3 167  ARG167     -0.0865
     81  CZ        40.0390   34.8380   19.0640 C.cat 167  ARG167      0.5346
     82  NH1       41.0690   34.0130   18.9340 N.pl3 167  ARG167      0.1354
     83  NH2       40.2550   36.1520   19.2280 N.pl3 167  ARG167      0.1354
     84  N         34.3880   31.9760   18.0300 N.am  168  THR168     -0.1951
     85  CA        34.1330   31.3540   16.7400 C.3   168  THR168      0.1897
     86  C         32.6830   30.9110   16.7070 C.2   168  THR168      0.2313
     87  O         32.0300   31.0750   15.6980 O.2   168  THR168     -0.2863
     88  CB        35.0680   30.1540   16.4600 C.3   168  THR168      0.1794
     89  OG1       34.7130   29.0540   17.3010 O.3   168  THR168     -0.2208
     90  CG2       36.5180   30.5550   16.7210 C.3   168  THR168      0.0378
     91  N         33.4990   22.7290   20.6230 N.3   228  THR228     -0.1203
     92  CA        34.3350   23.8270   21.0860 C.3   228  THR228      0.1994
     93  C         35.2460   23.2920   22.1670 C.2   228  THR228      0.2617
     94  O         35.1000   22.1510   22.6350 O.2   228  THR228     -0.2717
     95  CB        33.5460   24.9340   21.7720 C.3   228  THR228      0.1784
     96  OG1       32.8570   24.3750   22.8930 O.3   228  THR228     -0.2211
     97  CG2       32.6010   25.5910   20.8210 C.3   228  THR228      0.0376
     98  N         36.1990   24.1340   22.5650 N.am  229  ARG229     -0.1979
     99  CA        37.0920   23.7670   23.6370 C.3   229  ARG229      0.1597
    100  C         36.6090   24.5550   24.8460 C.2   229  ARG229      0.2287
    101  O         36.4510   25.7690   24.7940 O.2   229  ARG229     -0.2864
    102  CB        38.5460   24.1100   23.3170 C.3   229  ARG229      0.0334
    103  CG        39.4580   23.6890   24.4640 C.3   229  ARG229      0.0492
    104  CD        40.9170   24.1610   24.3390 C.3   229  ARG229      0.2205
    105  NE        41.0150   25.6170   24.2800 N.pl3 229  ARG229     -0.0865
    106  CZ        40.9100   26.3260   23.1620 C.cat 229  ARG229      0.5346
    107  NH1       41.0060   27.6590   23.1890 N.pl3 229  ARG229      0.1354
    108  NH2       40.7250   25.6970   22.0070 N.pl3 229  ARG229      0.1354
    109  N         37.6630   25.9110   27.6580 N.3   231  GLN231     -0.1245
    110  CA        38.9150   26.2710   28.2920 C.3   231  GLN231      0.1566
    111  C         38.7970   25.8810   29.7660 C.2   231  GLN231      0.2260
    112  O         38.0070   26.4320   30.5550 O.2   231  GLN231     -0.2867
    113  CB        39.2350   27.7630   28.1230 C.3   231  GLN231      0.0367
    114  CG        40.7330   28.0790   28.1910 C.3   231  GLN231      0.0905
    115  CD        41.2610   28.6870   26.8930 C.2   231  GLN231      0.2608
    116  OE1       41.3310   28.0340   25.8380 O.2   231  GLN231     -0.2717
    117  NE2       41.6280   29.9530   26.9680 N.am  231  GLN231     -0.0878
    118  N         35.8410   21.2200   14.5130 N.3   265  HIS265     -0.1227
    119  CA        36.3870   21.7080   15.7520 C.3   265  HIS265      0.1737
    120  C         37.4720   22.7460   15.4070 C.2   265  HIS265      0.2438
    121  O         38.4330   22.4730   14.6360 O.2   265  HIS265     -0.2733
    122  CB        37.0120   20.5650   16.4930 C.3   265  HIS265      0.0758
    123  CG        37.3820   20.9040   17.8910 C.ar  265  HIS265      0.0818
    124  ND1       38.2460   21.9290   18.2070 N.ar  265  HIS265     -0.2268
    125  CD2       36.9880   20.3660   19.0670 C.ar  265  HIS265      0.1154
    126  CE1       38.3780   22.0040   19.5210 C.ar  265  HIS265      0.1986
    127  NE2       37.6270   21.0640   20.0670 N.ar  265  HIS265     -0.2212
    128  N         37.3580   23.9380   15.9830 N.am  266  PRO266     -0.2718
    129  CA        38.3470   24.9860   15.6900 C.3   266  PRO266      0.1535
    130  C         39.7520   24.6970   16.1880 C.2   266  PRO266      0.2598
    131  O         40.6940   25.3620   15.7710 O.2   266  PRO266     -0.2715
    132  CB        37.7550   26.2440   16.3350 C.3   266  PRO266      0.0310
    133  CG        36.8840   25.6390   17.5110 C.3   266  PRO266      0.0237
    134  CD        36.2710   24.4230   16.8600 C.3   266  PRO266      0.0939
    135  N         39.8680   23.6980   17.0750 N.am  267  LEU267     -0.1964
    136  CA        41.1260   23.2800   17.6780 C.3   267  LEU267      0.1713
    137  C         41.6500   24.3600   18.6270 C.2   267  LEU267      0.2458
    138  O         41.4200   25.5660   18.4290 O.2   267  LEU267     -0.2730
    139  CB        42.1580   22.9560   16.5930 C.3   267  LEU267      0.0310
    140  CG        42.3020   21.4440   16.2480 C.3   267  LEU267      0.0022
    141  CD1       41.0210   20.6470   16.4280 C.3   267  LEU267      0.0001
    142  CD2       42.7690   21.3230   14.7920 C.3   267  LEU267      0.0001
    143  N         42.4260   23.9420   19.6440 N.am  268  PRO268     -0.2727
    144  CA        42.7740   22.5350   19.8410 C.3   268  PRO268      0.1402
    145  C         41.6770   21.6680   20.4180 C.2   268  PRO268      0.2269
    146  O         40.8480   22.1320   21.2040 O.2   268  PRO268     -0.2865
    147  CB        43.9910   22.6220   20.7620 C.3   268  PRO268      0.0296
    148  CG        43.6150   23.7690   21.6610 C.3   268  PRO268      0.0237
    149  CD        43.0820   24.7830   20.6600 C.3   268  PRO268      0.0939
    150  N         41.1980   22.5100    9.1980 N.3   289  ALA289     -0.1245
    151  CA        42.3520   23.3750    9.4100 C.3   289  ALA289      0.1562
    152  C         42.9770   23.5680    8.0540 C.2   289  ALA289      0.2260
    153  O         43.4990   24.6370    7.7850 O.2   289  ALA289     -0.2867
    154  CB        43.3430   22.7330   10.3490 C.3   289  ALA289      0.0290
    155  N         42.1000   31.8620    3.6920 N.3   296  ARG296     -0.1245
    156  CA        42.9650   33.0140    3.9140 C.3   296  ARG296      0.1563
    157  C         43.5520   33.4740    2.6130 C.2   296  ARG296      0.2260
    158  O         43.7940   34.6740    2.4210 O.2   296  ARG296     -0.2867
    159  CB        44.0500   32.7170    4.9580 C.3   296  ARG296      0.0307
    160  CG        43.5920   33.0550    6.3410 C.3   296  ARG296      0.0489
    161  CD        43.8970   31.9610    7.3370 C.3   296  ARG296      0.2205
    162  NE        43.1800   32.1910    8.5920 N.pl3 296  ARG296     -0.0865
    163  CZ        43.1030   31.3100    9.5860 C.cat 296  ARG296      0.5346
    164  NH1       42.4320   31.6180   10.7080 N.pl3 296  ARG296      0.1354
    165  NH2       43.7030   30.1260    9.4510 N.pl3 296  ARG296      0.1354
@<TRIPOS>BOND
     1   158   157    2
     2   157   156    1
     3   155   156    1
     4   156   159    1
     5   159   160    1
     6    28    27    2
     7   160   161    1
     8    64    63    2
     9    62    61    1
    10    62    63    1
    11    62    65    1
    12    65    66    1
    13   161   162    1
    14    27    26    1
    15   153   152    2
    16    30    29    1
    17   152   151    1
    18    26    29    1
    19    26    25    1
    20   162   163    2
    21    66    67    1
    22    66    68    1
    23   150   151    1
    24   151   154    1
    25   165   163    1
    26   163   164    1
    27    55    54    2
    28    52    53    1
    29    54    53    1
    30    21    20    2
    31    53    56    1
    32    10     9    2
    33    20    19    1
    34    59    58    2
    35    24    22    1
    36    56    57    1
    37    19    22    1
    38    19    18    1
    39    45    44    2
    40    58    57    1
    41    58    60   am
    42    44    43    1
    43     9    18   am
    44     9     8    1
    45    22    23    1
    46    12    13    1
    47    12    11    1
    48    49    51   ar
    49    49    47   ar
    50    51    50   ar
    51     8    11    1
    52     8     7    1
    53    43    42    1
    54    43    46    1
    55    13    14    1
    56   118   119    1
    57   121   120    2
    58   142   140    1
    59    47    46    1
    60    47    48   ar
    61    50    48   ar
    62    31    32    1
    63    14    15    2
    64   120   119    1
    65   120   128   am
    66     4     3    2
    67   129   128    1
    68   129   130    1
    69   129   132    1
    70    87    86    2
    71   119   122    1
    72   131   130    2
    73   128   134    1
    74   130   135   am
    75   140   141    1
    76   140   139    1
    77    32    35    1
    78    32    33    1
    79   132   133    1
    80    35    36    1
    81    88    90    1
    82    88    85    1
    83    88    89    1
    84   122   123    1
    85    15    16    1
    86    15    17    1
    87   139   136    1
    88     6     5    1
    89    86    85    1
    90    85    84    1
    91     3     2    1
    92   134   133    1
    93    40    39    1
    94    37    36    1
    95    37    38    1
    96   135   136    1
    97     5     2    1
    98    33    34    2
    99    76    75    2
   100   136   137    1
   101   123   124   ar
   102   123   125   ar
   103     2     1    1
   104    39    38    2
   105    39    41    1
   106    84    75   am
   107   124   126   ar
   108    75    74    1
   109   138   137    2
   110   137   143   am
   111    78    79    1
   112    78    77    1
   113    82    81    1
   114    80    81    2
   115    80    79    1
   116    81    83    1
   117   125   127   ar
   118   126   127   ar
   119   143   144    1
   120   143   149    1
   121    77    74    1
   122    74    73    1
   123   144   145    1
   124   144   147    1
   125   145   146    2
   126    91    92    1
   127   149   148    1
   128    73    71   am
   129   147   148    1
   130    97    95    1
   131    72    71    2
   132    92    95    1
   133    92    93    1
   134    71    70    1
   135    95    96    1
   136   108   106    1
   137    93    98   am
   138    93    94    2
   139    70    69    1
   140    98    99    1
   141   106   107    1
   142   106   105    2
   143   102    99    1
   144   102   103    1
   145    99   100    1
   146   105   104    1
   147   104   103    1
   148   101   100    2
   149   116   115    2
   150   115   117   am
   151   115   114    1
   152   109   110    1
   153   113   114    1
   154   113   110    1
   155   110   111    1
   156   111   112    2
