@<TRIPOS>MOLECULE
tmp/2fzsM00.pdb
 203 196 0 0 0
SMALL
GASTEIGER

@<TRIPOS>ATOM
      1  N         21.3660   60.0820   21.1970 N.3    27  GLN27      -0.1245
      2  CA        21.9540   59.0670   20.3040 C.3    27  GLN27       0.1566
      3  C         20.9750   57.9850   19.8950 C.2    27  GLN27       0.2260
      4  O         20.3000   57.3890   20.7330 O.2    27  GLN27      -0.2867
      5  CB        23.1980   58.4220   20.9010 C.3    27  GLN27       0.0367
      6  CG        23.9190   57.4890   19.9160 C.3    27  GLN27       0.0905
      7  CD        24.9610   58.2000   19.0230 C.2    27  GLN27       0.2608
      8  OE1       24.8280   59.3790   18.7050 O.2    27  GLN27      -0.2717
      9  NE2       25.9960   57.4660   18.6160 N.am   27  GLN27      -0.0878
     10  N         22.2690   64.0070   18.2650 N.3    59  PRO59      -0.2102
     11  CA        23.6150   64.1350   17.6730 C.3    59  PRO59       0.1504
     12  C         23.9700   63.0640   16.6510 C.2    59  PRO59       0.2576
     13  O         25.0410   63.1280   16.0590 O.2    59  PRO59      -0.2718
     14  CB        24.5340   64.0320   18.8930 C.3    59  PRO59       0.0282
     15  CG        23.8180   63.0270   19.7870 C.3    59  PRO59       0.0208
     16  CD        22.3040   63.3740   19.5910 C.3    59  PRO59       0.0893
     17  N         23.1420   62.0380   16.4840 N.am   60  GLY60      -0.1943
     18  CA        23.4280   61.0320   15.4600 C.3    60  GLY60       0.2014
     19  C         23.2760   59.6790   16.1020 C.2    60  GLY60       0.2639
     20  O         22.5590   59.5840   17.0820 O.2    60  GLY60      -0.2714
     21  N         23.9650   58.6630   15.5740 N.am   61  GLY61      -0.1939
     22  CA        23.8650   57.3200   16.1260 C.3    61  GLY61       0.2014
     23  C         24.0770   56.2070   15.1320 C.2    61  GLY61       0.2639
     24  O         24.6390   56.4180   14.0620 O.2    61  GLY61      -0.2714
     25  N         23.6070   55.0090   15.5090 N.am   62  VAL62      -0.1963
     26  CA        23.9140   53.7840   14.8120 C.3    62  VAL62       0.1727
     27  C         23.0180   53.6360   13.5940 C.2    62  VAL62       0.2616
     28  O         21.8040   53.8140   13.6860 O.2    62  VAL62      -0.2715
     29  CB        23.7540   52.5840   15.8000 C.3    62  VAL62       0.0290
     30  CG1       24.0120   51.2500   15.0600 C.3    62  VAL62       0.0023
     31  CG2       24.7340   52.7860   16.9960 C.3    62  VAL62       0.0023
     32  N         23.6100   53.3120   12.4500 N.am   63  ILE63      -0.1963
     33  CA        22.8710   53.2940   11.2210 C.3    63  ILE63       0.1727
     34  C         21.7570   52.2690   11.1750 C.2    63  ILE63       0.2616
     35  O         20.6080   52.5980   10.8380 O.2    63  ILE63      -0.2715
     36  CB        23.7990   53.1790    9.9770 C.3    63  ILE63       0.0290
     37  CG1       24.6640   54.4680    9.8740 C.3    63  ILE63       0.0022
     38  CG2       22.9560   53.0150    8.6840 C.3    63  ILE63       0.0023
     39  CD1       25.8250   54.3700    8.9250 C.3    63  ILE63       0.0001
     40  N         22.0540   51.0320   11.5350 N.am   64  THR64      -0.1951
     41  CA        20.9790   50.0580   11.4890 C.3    64  THR64       0.1897
     42  C         19.8370   50.3950   12.4590 C.2    64  THR64       0.2313
     43  O         18.6470   50.2230   12.1120 O.2    64  THR64      -0.2863
     44  CB        21.4690   48.6410   11.7470 C.3    64  THR64       0.1794
     45  OG1       22.1530   48.6170   12.9970 O.3    64  THR64      -0.2208
     46  CG2       22.4040   48.1850   10.6390 C.3    64  THR64       0.0378
     47  N         23.6990   63.9430   11.5140 N.3    90  SER90      -0.1202
     48  CA        23.9850   62.6520   10.9070 C.3    90  SER90       0.2020
     49  C         22.7340   61.7830   10.9330 C.2    90  SER90       0.2618
     50  O         21.7630   62.0900   10.2140 O.2    90  SER90      -0.2717
     51  CB        25.1440   61.9990   11.6340 C.3    90  SER90       0.2103
     52  OG        25.4760   60.7700   11.0480 O.3    90  SER90      -0.2182
     53  N         22.7040   60.7180   11.7380 N.am   91  MET91      -0.1979
     54  CA        21.4680   59.8700   11.7060 C.3    91  MET91       0.1605
     55  C         20.2210   60.7200   12.0620 C.2    91  MET91       0.2287
     56  O         19.1370   60.4650   11.5610 O.2    91  MET91      -0.2864
     57  CB        21.5700   58.5660   12.5200 C.3    91  MET91       0.0413
     58  CG        20.2990   57.6790   12.4140 C.3    91  MET91       0.0598
     59  SD        19.6240   57.4430   10.7270 S.3    91  MET91      -0.1393
     60  CE        20.9300   56.4540    9.9710 C.3    91  MET91       0.0692
     61  N         19.2630   62.5830    8.9210 N.3    94  PHE94      -0.1241
     62  CA        18.6980   61.6040    7.9750 C.3    94  PHE94       0.1605
     63  C         17.2140   61.3130    8.2320 C.2    94  PHE94       0.2264
     64  O         16.4190   61.4030    7.3280 O.2    94  PHE94      -0.2867
     65  CB        19.5040   60.2980    8.0580 C.3    94  PHE94       0.0534
     66  CG        19.1010   59.2770    7.0320 C.ar   94  PHE94      -0.0203
     67  CD1       19.6160   59.3370    5.7240 C.ar   94  PHE94      -0.0042
     68  CD2       18.2090   58.2760    7.3570 C.ar   94  PHE94      -0.0042
     69  CE1       19.2420   58.3880    4.7590 C.ar   94  PHE94      -0.0003
     70  CE2       17.8250   57.3430    6.4100 C.ar   94  PHE94      -0.0003
     71  CZ        18.3360   57.4070    5.1160 C.ar   94  PHE94      -0.0000
     72  N         25.4220   66.9650    8.5180 N.3   114  ILE114     -0.1231
     73  CA        25.4310   65.7020    7.7810 C.3   114  ILE114      0.1692
     74  C         26.8630   65.2550    7.5680 C.2   114  ILE114      0.2592
     75  O         27.7300   66.0800    7.5180 O.2   114  ILE114     -0.2718
     76  CB        24.6770   65.8570    6.4390 C.3   114  ILE114      0.0266
     77  CG1       25.3190   66.9680    5.5560 C.3   114  ILE114      0.0019
     78  CG2       23.1850   66.1710    6.7280 C.3   114  ILE114      0.0020
     79  CD1       24.7170   67.1050    4.1280 C.3   114  ILE114      0.0001
     80  N         27.0810   63.9300    7.4860 N.am  115  HIS115     -0.1962
     81  CA        28.4040   63.3620    7.2890 C.3   115  HIS115      0.1787
     82  C         28.3140   61.9140    6.8230 C.2   115  HIS115      0.2620
     83  O         27.2920   61.2660    6.9800 O.2   115  HIS115     -0.2715
     84  CB        29.2890   63.5000    8.5470 C.3   115  HIS115      0.0785
     85  CG        28.8920   62.6430    9.7400 C.ar  115  HIS115      0.0821
     86  ND1       29.2590   63.0000   11.0190 N.ar  115  HIS115     -0.2267
     87  CD2       28.1660   61.4970    9.8760 C.ar  115  HIS115      0.1154
     88  CE1       28.8470   62.0870   11.8880 C.ar  115  HIS115      0.1986
     89  NE2       28.1520   61.1760   11.2240 N.ar  115  HIS115     -0.2212
     90  N         29.4020   61.3870    6.2810 N.am  116  GLN116     -0.1964
     91  CA        29.4250   59.9860    5.8680 C.3   116  GLN116      0.1718
     92  C         29.5700   59.0280    7.0830 C.2   116  GLN116      0.2458
     93  O         29.8320   59.4620    8.2020 O.2   116  GLN116     -0.2730
     94  CB        30.5920   59.7600    4.9130 C.3   116  GLN116      0.0407
     95  CG        31.9430   60.1220    5.5710 C.3   116  GLN116      0.0908
     96  CD        33.1290   59.6720    4.7440 C.2   116  GLN116      0.2608
     97  OE1       34.0620   60.4610    4.4260 O.2   116  GLN116     -0.2717
     98  NE2       33.0890   58.4510    4.3750 N.am  116  GLN116     -0.0878
     99  N         29.3840   57.7170    6.8590 N.am  117  PRO117     -0.2716
    100  CA        29.5440   56.7970    8.0220 C.3   117  PRO117      0.1536
    101  C         30.9740   56.7200    8.6120 C.2   117  PRO117      0.2598
    102  O         31.9440   56.9540    7.8650 O.2   117  PRO117     -0.2715
    103  CB        29.1950   55.4270    7.4490 C.3   117  PRO117      0.0310
    104  CG        28.4730   55.6650    6.0930 C.3   117  PRO117      0.0237
    105  CD        29.0070   57.0230    5.6080 C.3   117  PRO117      0.0939
    106  N         31.0560   56.3690    9.9150 N.am  118  LEU118     -0.1964
    107  CA        32.3140   56.0930   10.6620 C.3   118  LEU118      0.1728
    108  C         32.1640   54.7030   11.2130 C.2   118  LEU118      0.2617
    109  O         31.0560   54.2500   11.5440 O.2   118  LEU118     -0.2715
    110  CB        32.5240   57.0760   11.8020 C.3   118  LEU118      0.0311
    111  CG        32.5270   58.5400   11.3180 C.3   118  LEU118      0.0022
    112  CD1       31.1390   59.0920   11.6630 C.3   118  LEU118      0.0001
    113  CD2       33.6080   59.3080   12.0180 C.3   118  LEU118      0.0001
    114  N         33.2510   53.9490   11.2650 N.am  119  GLY119     -0.1940
    115  CA        33.1100   52.6090   11.8060 C.3   119  GLY119      0.2014
    116  C         34.5030   52.1870   12.1690 C.2   119  GLY119      0.2639
    117  O         35.4180   52.9430   12.0950 O.2   119  GLY119     -0.2714
    118  N         34.6620   50.9310   12.5380 N.am  120  GLY120     -0.1954
    119  CA        35.9800   50.4820   12.9500 C.3   120  GLY120      0.1869
    120  C         35.9160   48.9720   13.0370 C.2   120  GLY120      0.2309
    121  O         34.8680   48.4140   13.4430 O.2   120  GLY120     -0.2863
    122  N         34.5930   43.9030    5.6330 N.3   131  HIS131     -0.1241
    123  CA        33.9140   44.9430    6.4160 C.3   131  HIS131      0.1621
    124  C         34.0490   46.3020    5.7640 C.2   131  HIS131      0.2264
    125  O         33.1340   47.0980    5.8190 O.2   131  HIS131     -0.2867
    126  CB        34.3370   44.9210    7.9060 C.3   131  HIS131      0.0745
    127  CG        33.7310   43.7470    8.6350 C.ar  131  HIS131      0.0817
    128  ND1       32.6200   43.8900    9.4430 N.ar  131  HIS131     -0.2268
    129  CD2       33.9720   42.4070    8.5500 C.ar  131  HIS131      0.1154
    130  CE1       32.2550   42.7000    9.8880 C.ar  131  HIS131      0.1986
    131  NE2       33.0450   41.7780    9.3600 N.ar  131  HIS131     -0.2212
    132  N         31.4210   46.4550    3.0830 N.3   134  GLU134     -0.1231
    133  CA        30.0910   46.6660    3.6790 C.3   134  GLU134      0.1699
    134  C         29.8390   48.1220    4.0490 C.2   134  GLU134      0.2592
    135  O         28.7690   48.6680    3.7580 O.2   134  GLU134     -0.2718
    136  CB        29.8630   45.7150    4.8900 C.3   134  GLU134      0.0402
    137  CG        28.6220   45.9260    5.6650 C.3   134  GLU134      0.1161
    138  CD        27.3370   45.6540    4.8600 C.2   134  GLU134      0.3649
    139  OE1       27.4020   45.1520    3.7000 O.co2 134  GLU134     -0.2457
    140  OE2       26.2590   45.9100    5.4480 O.co2 134  GLU134     -0.2457
    141  N         30.8330   48.7890    4.6360 N.am  135  ILE135     -0.1980
    142  CA        30.5610   50.1630    5.0890 C.3   135  ILE135      0.1595
    143  C         30.4930   51.1000    3.8740 C.2   135  ILE135      0.2287
    144  O         29.7270   52.0770    3.8850 O.2   135  ILE135     -0.2864
    145  CB        31.6070   50.6390    6.1710 C.3   135  ILE135      0.0276
    146  CG1       31.2210   52.0430    6.6670 C.3   135  ILE135      0.0022
    147  CG2       32.8880   50.8630    5.5450 C.3   135  ILE135      0.0022
    148  CD1       31.7030   52.3810    8.0790 C.3   135  ILE135      0.0001
    149  N         26.9030   50.5730    2.5280 N.3   138  VAL138     -0.1231
    150  CA        26.0660   51.3950    3.4360 C.3   138  VAL138      0.1692
    151  C         26.1830   52.8830    3.1140 C.2   138  VAL138      0.2591
    152  O         25.1540   53.5790    2.9990 O.2   138  VAL138     -0.2718
    153  CB        26.2980   51.0880    4.9330 C.3   138  VAL138      0.0266
    154  CG1       25.4690   51.9650    5.7920 C.3   138  VAL138      0.0020
    155  CG2       25.8520   49.5880    5.2810 C.3   138  VAL138      0.0020
    156  N         27.4250   53.3900    2.9850 N.am  139  LYS139     -0.1980
    157  CA        27.6460   54.7800    2.6600 C.3   139  LYS139      0.1596
    158  C         26.8760   55.1340    1.3540 C.2   139  LYS139      0.2287
    159  O         26.2260   56.2010    1.2610 O.2   139  LYS139     -0.2864
    160  CB        29.1650   55.0340    2.4790 C.3   139  LYS139      0.0298
    161  CG        29.5420   56.4530    1.9610 C.3   139  LYS139      0.0038
    162  CD        31.0780   56.5700    1.8680 C.3   139  LYS139      0.0206
    163  CE        31.5120   58.0040    1.4390 C.3   139  LYS139      0.1093
    164  NZ        32.9790   58.0560    1.4450 N.3   139  LYS139     -0.1314
    165  N         22.9700   55.1200    1.9280 N.3   142  MET142     -0.1230
    166  CA        22.5480   56.2830    2.6920 C.3   142  MET142      0.1702
    167  C         22.6090   57.5450    1.8240 C.2   142  MET142      0.2592
    168  O         21.7340   58.3850    1.9410 O.2   142  MET142     -0.2718
    169  CB        23.3350   56.4910    4.0160 C.3   142  MET142      0.0401
    170  CG        23.2380   55.2680    5.0090 C.3   142  MET142      0.0596
    171  SD        21.5610   55.0260    5.4910 S.3   142  MET142     -0.1393
    172  CE        21.5230   56.2920    6.7840 C.3   142  MET142      0.0692
    173  N         23.5820   57.6420    0.9320 N.am  143  ASN143     -0.1974
    174  CA        23.6540   58.8200    0.0530 C.3   143  ASN143      0.1688
    175  C         22.5070   58.7980   -0.9690 C.2   143  ASN143      0.2292
    176  O         21.9880   59.8450   -1.3140 O.2   143  ASN143     -0.2864
    177  CB        24.9760   58.9170   -0.6780 C.3   143  ASN143      0.1181
    178  CG        26.1470   59.3510    0.2510 C.2   143  ASN143      0.2629
    179  OD1       25.9850   60.1390    1.2030 O.2   143  ASN143     -0.2716
    180  ND2       27.3030   58.8880   -0.0660 N.am  143  ASN143     -0.0877
    181  N         19.4160   59.9110    1.0120 N.3   146  MET146     -0.1245
    182  CA        19.4930   61.3890    1.2730 C.3   146  MET146      0.1570
    183  C         19.2120   62.2230   -0.0180 C.2   146  MET146      0.2261
    184  O         18.5440   63.2730    0.0080 O.2   146  MET146     -0.2867
    185  CB        20.9170   61.7480    1.8070 C.3   146  MET146      0.0387
    186  CG        21.0850   63.2450    1.9500 C.3   146  MET146      0.0595
    187  SD        21.2730   63.7170    3.6870 S.3   146  MET146     -0.1393
    188  CE        20.0420   62.6860    4.2820 C.3   146  MET146      0.0692
    189  N         25.2380   64.9310   -2.9220 N.3   157  ILE157     -0.1245
    190  CA        25.1980   64.3790   -1.5250 C.3   157  ILE157      0.1561
    191  C         26.5610   63.7870   -1.1600 C.2   157  ILE157      0.2260
    192  O         27.0650   64.0340   -0.0700 O.2   157  ILE157     -0.2867
    193  CB        24.0540   63.3870   -1.2880 C.3   157  ILE157      0.0252
    194  CG1       22.6890   64.0790   -1.5110 C.3   157  ILE157      0.0019
    195  CG2       24.2110   62.7350    0.1270 C.3   157  ILE157      0.0019
    196  CD1       22.5220   65.4580   -0.6270 C.3   157  ILE157      0.0001
    197  N         29.0750   65.3040    1.9720 N.3   161  THR161     -0.1218
    198  CA        29.0990   64.5070    3.2150 C.3   161  THR161      0.1862
    199  C         30.4750   63.9170    3.4890 C.2   161  THR161      0.2287
    200  O         30.6640   63.1960    4.4530 O.2   161  THR161     -0.2866
    201  CB        28.0270   63.4080    3.2400 C.3   161  THR161      0.1770
    202  OG1       28.1620   62.5850    2.0450 O.3   161  THR161     -0.2211
    203  CG2       26.6490   64.0480    3.3180 C.3   161  THR161      0.0375
@<TRIPOS>BOND
     1   189   190    1
     2   190   193    1
     3   190   191    1
     4   194   193    1
     5   194   196    1
     6   176   175    2
     7   193   195    1
     8   191   192    2
     9   175   174    1
    10   177   174    1
    11   177   178    1
    12   180   178   am
    13   183   184    2
    14   183   182    1
    15   174   173    1
    16   178   179    2
    17   173   167   am
    18   181   182    1
    19   159   158    2
    20   182   185    1
    21   158   157    1
    22   163   164    1
    23   163   162    1
    24   185   186    1
    25   167   168    2
    26   167   166    1
    27   162   161    1
    28   165   166    1
    29   186   187    1
    30   161   160    1
    31   197   198    1
    32   202   201    1
    33   160   157    1
    34   149   150    1
    35   157   156    1
    36   166   169    1
    37   156   151   am
    38   152   151    2
    39   132   133    1
    40   151   150    1
    41   198   201    1
    42   198   199    1
    43   201   203    1
    44   150   153    1
    45   199   200    2
    46   133   134    1
    47   133   136    1
    48   187   188    1
    49   139   138   ar
    50   135   134    2
    51   143   144    2
    52   143   142    1
    53   169   170    1
    54   134   141   am
    55    79    77    1
    56    98    96   am
    57    97    96    2
    58   141   142    1
    59    96    95    1
    60    69    71   ar
    61    69    67   ar
    62   138   140   ar
    63   138   137    1
    64   136   137    1
    65    94    95    1
    66    94    91    1
    67   153   155    1
    68   153   154    1
    69   170   171    1
    70   142   145    1
    71    71    70   ar
    72   171   172    1
    73   147   145    1
    74    77    76    1
    75   105   104    1
    76   105    99    1
    77   122   123    1
    78    67    66   ar
    79   124   125    2
    80   124   123    1
    81    91    90    1
    82    91    92    1
    83   104   103    1
    84   145   146    1
    85    90    82   am
    86    70    68   ar
    87   123   126    1
    88    76    78    1
    89    76    73    1
    90   146   148    1
    91    82    83    2
    92    82    81    1
    93    99    92   am
    94    99   100    1
    95    66    68   ar
    96    66    65    1
    97    92    93    2
    98    81    80    1
    99    81    84    1
   100    64    63    2
   101   103   100    1
   102    80    74   am
   103    75    74    2
   104    74    73    1
   105    73    72    1
   106   102   101    2
   107   126   127    1
   108    62    65    1
   109    62    63    1
   110    62    61    1
   111   100   101    1
   112    84    85    1
   113   129   127   ar
   114   129   131   ar
   115   101   106   am
   116   127   128   ar
   117    38    36    1
   118    39    37    1
   119   131   130   ar
   120   128   130   ar
   121    85    87   ar
   122    85    86   ar
   123    37    36    1
   124    87    89   ar
   125   106   107    1
   126    60    59    1
   127    36    33    1
   128    50    49    2
   129    46    44    1
   130   107   108    1
   131   107   110    1
   132    59    58    1
   133    35    34    2
   134    48    49    1
   135    48    47    1
   136    48    51    1
   137    49    53   am
   138    86    88   ar
   139    52    51    1
   140    34    33    1
   141    34    40   am
   142   108   114   am
   143   108   109    2
   144    33    32    1
   145    89    88   ar
   146   114   115    1
   147   111   112    1
   148   111   110    1
   149   111   113    1
   150    41    40    1
   151    41    44    1
   152    41    42    1
   153    56    55    2
   154    54    53    1
   155    54    55    1
   156    54    57    1
   157    44    45    1
   158   115   116    1
   159   117   116    2
   160    43    42    2
   161   116   118   am
   162    58    57    1
   163    32    27   am
   164   118   119    1
   165   119   120    1
   166   120   121    2
   167    27    28    2
   168    27    26    1
   169    24    23    2
   170    26    25    1
   171    26    29    1
   172    30    29    1
   173    23    25   am
   174    23    22    1
   175    18    19    1
   176    18    17    1
   177    21    19   am
   178    21    22    1
   179    29    31    1
   180    13    12    2
   181    19    20    2
   182    17    12   am
   183    12    11    1
   184    11    10    1
   185    11    14    1
   186    10    16    1
   187     9     7   am
   188     8     7    2
   189    14    15    1
   190     7     6    1
   191    16    15    1
   192     3     2    1
   193     3     4    2
   194     6     5    1
   195     2     5    1
   196     2     1    1
