@<TRIPOS>MOLECULE
tmp/2fzzA00.pdb
 204 201 0 0 0
SMALL
GASTEIGER

@<TRIPOS>ATOM
      1  N         17.7600   30.7330   50.0280 N.3    82  LYS82      -0.1231
      2  CA        18.8140   30.7520   51.0410 C.3    82  LYS82       0.1693
      3  C         19.3050   32.1780   51.3000 C.2    82  LYS82       0.2592
      4  O         19.8200   32.4880   52.3740 O.2    82  LYS82      -0.2718
      5  CB        19.9920   29.8870   50.5910 C.3    82  LYS82       0.0285
      6  CG        19.6710   28.4720   50.0720 C.3    82  LYS82       0.0035
      7  CD        19.5000   28.4600   48.5360 C.3    82  LYS82       0.0206
      8  CE        19.7840   27.0630   47.9560 C.3    82  LYS82       0.1093
      9  NZ        20.0070   27.1220   46.4830 N.3    82  LYS82      -0.1314
     10  N         19.1470   33.0440   50.3040 N.am   83  GLU83      -0.1966
     11  CA        19.5040   34.4490   50.4380 C.3    83  GLU83       0.1733
     12  C         18.7460   35.0990   51.5880 C.2    83  GLU83       0.2617
     13  O         19.3090   35.8770   52.3610 O.2    83  GLU83      -0.2715
     14  CB        19.1930   35.1880   49.1370 C.3    83  GLU83       0.0429
     15  CG        19.5150   36.6730   49.2160 C.3    83  GLU83       0.1163
     16  CD        21.0010   36.9370   49.3470 C.2    83  GLU83       0.3649
     17  OE1       21.7810   36.2780   48.6280 O.co2  83  GLU83      -0.2457
     18  OE2       21.3880   37.8010   50.1670 O.co2  83  GLU83      -0.2457
     19  N         17.4630   34.7730   51.6980 N.am   84  THR84      -0.1937
     20  CA        16.5760   35.4420   52.6420 C.3    84  THR84       0.2028
     21  C         16.0680   34.5280   53.7600 C.2    84  THR84       0.2642
     22  O         15.7370   34.9980   54.8470 O.2    84  THR84      -0.2714
     23  CB        15.3630   36.0390   51.9090 C.3    84  THR84       0.1808
     24  OG1       14.4540   36.5910   52.8620 O.3    84  THR84      -0.2208
     25  CG2       14.6480   34.9750   51.1040 C.3    84  THR84       0.0379
     26  N         16.0070   33.2280   53.4790 N.am   85  TYR85      -0.1973
     27  CA        15.3530   32.2480   54.3470 C.3    85  TYR85       0.1639
     28  C         13.8610   32.5290   54.5720 C.2    85  TYR85       0.2290
     29  O         13.2630   32.0090   55.5140 O.2    85  TYR85      -0.2864
     30  CB        16.0880   32.1510   55.6930 C.3    85  TYR85       0.0560
     31  CG        17.1430   31.0630   55.7120 C.ar   85  TYR85      -0.0198
     32  CD1       18.1560   31.0370   54.7640 C.ar   85  TYR85      -0.0009
     33  CD2       17.0950   30.0370   56.6430 C.ar   85  TYR85      -0.0009
     34  CE1       19.0860   30.0160   54.7370 C.ar   85  TYR85       0.0417
     35  CE2       18.0200   29.0120   56.6260 C.ar   85  TYR85       0.0417
     36  CZ        19.0120   29.0040   55.6680 C.ar   85  TYR85       0.1957
     37  OH        19.9170   27.9680   55.6200 O.3    85  TYR85      -0.2866
     38  N         21.4310   19.9830   68.2440 N.3   132  ARG132     -0.1245
     39  CA        22.5380   20.2340   69.1660 C.3   132  ARG132      0.1563
     40  C         22.0800   20.7240   70.5280 C.2   132  ARG132      0.2260
     41  O         21.1770   21.5490   70.6250 O.2   132  ARG132     -0.2867
     42  CB        23.4890   21.2750   68.5710 C.3   132  ARG132      0.0307
     43  CG        24.4660   20.9330   67.4430 C.3   132  ARG132      0.0489
     44  CD        24.6290   22.1140   66.4880 C.3   132  ARG132      0.2205
     45  NE        25.9280   22.1540   65.8180 N.pl3 132  ARG132     -0.0865
     46  CZ        26.3540   21.2530   64.9370 C.cat 132  ARG132      0.5346
     47  NH1       25.5880   20.2180   64.6080 N.pl3 132  ARG132      0.1354
     48  NH2       27.5480   21.3920   64.3710 N.pl3 132  ARG132      0.1354
     49  N         25.6140   25.1270   71.0550 N.3   135  GLU135     -0.1245
     50  CA        25.9170   25.6480   69.7300 C.3   135  GLU135      0.1567
     51  C         27.0870   24.9090   69.0690 C.2   135  GLU135      0.2260
     52  O         27.0980   24.7170   67.8530 O.2   135  GLU135     -0.2867
     53  CB        26.2240   27.1400   69.8210 C.3   135  GLU135      0.0388
     54  CG        26.4840   27.6840   68.4450 C.3   135  GLU135      0.1160
     55  CD        26.6510   29.1830   68.4490 C.2   135  GLU135      0.3649
     56  OE1       26.0850   29.8440   69.3440 O.co2 135  GLU135     -0.2457
     57  OE2       27.3500   29.7000   67.5560 O.co2 135  GLU135     -0.2457
     58  N         19.3490   40.1480   60.5790 N.3   162  PHE162     -0.1227
     59  CA        18.7440   39.8680   59.2800 C.3   162  PHE162      0.1736
     60  C         17.2660   40.2720   59.2620 C.2   162  PHE162      0.2595
     61  O         16.6090   40.2950   60.3040 O.2   162  PHE162     -0.2718
     62  CB        18.8780   38.3790   58.9530 C.3   162  PHE162      0.0547
     63  CG        20.3000   37.8970   58.8750 C.ar  162  PHE162     -0.0202
     64  CD1       21.0510   38.0910   57.7290 C.ar  162  PHE162     -0.0042
     65  CD2       20.8850   37.2410   59.9500 C.ar  162  PHE162     -0.0042
     66  CE1       22.3620   37.6390   57.6490 C.ar  162  PHE162     -0.0003
     67  CE2       22.1950   36.7870   59.8790 C.ar  162  PHE162     -0.0003
     68  CZ        22.9350   36.9870   58.7260 C.ar  162  PHE162     -0.0000
     69  N         16.7460   40.5870   58.0790 N.am  163  ILE163     -0.1980
     70  CA        15.3690   41.0560   57.9610 C.3   163  ILE163      0.1595
     71  C         14.3850   39.9700   58.3770 C.2   163  ILE163      0.2287
     72  O         14.2700   38.9380   57.7140 O.2   163  ILE163     -0.2864
     73  CB        15.0370   41.4870   56.5110 C.3   163  ILE163      0.0276
     74  CG1       15.8450   42.7350   56.1320 C.3   163  ILE163      0.0022
     75  CG2       13.5420   41.7660   56.3760 C.3   163  ILE163      0.0022
     76  CD1       15.3690   44.0060   56.8090 C.3   163  ILE163      0.0001
     77  N          7.8660   35.2130   59.4710 N.3   168  MET168     -0.1245
     78  CA         8.7010   34.7570   60.5870 C.3   168  MET168      0.1570
     79  C          8.1890   35.3210   61.9130 C.2   168  MET168      0.2261
     80  O          7.6270   36.4170   61.9380 O.2   168  MET168     -0.2867
     81  CB        10.1420   35.2280   60.3840 C.3   168  MET168      0.0387
     82  CG        10.7570   34.8780   59.0720 C.3   168  MET168      0.0595
     83  SD        12.4250   35.5460   58.8940 S.3   168  MET168     -0.1393
     84  CE        12.8100   35.0270   57.2360 C.3   168  MET168      0.0692
     85  N         17.1130   27.4670   74.0100 N.3   179  ASP179     -0.1225
     86  CA        16.9140   27.8410   72.6130 C.3   179  ASP179      0.1805
     87  C         16.8620   26.5660   71.7740 C.2   179  ASP179      0.2598
     88  O         17.2110   25.4880   72.2480 O.2   179  ASP179     -0.2718
     89  CB        18.0820   28.7230   72.1500 C.3   179  ASP179      0.1424
     90  CG        17.7450   29.5780   70.9260 C.2   179  ASP179      0.3668
     91  OD1       16.6260   29.4650   70.3780 O.co2 179  ASP179     -0.2456
     92  OD2       18.6110   30.3770   70.5100 O.co2 179  ASP179     -0.2456
     93  N         16.4110   26.6880   70.5320 N.am  180  ALA180     -0.1966
     94  CA        16.6020   25.6260   69.5570 C.3   180  ALA180      0.1728
     95  C         18.0040   25.7960   68.9750 C.2   180  ALA180      0.2616
     96  O         18.7420   26.6950   69.3770 O.2   180  ALA180     -0.2715
     97  CB        15.5420   25.7190   68.4550 C.3   180  ALA180      0.0334
     98  N         18.3750   24.9320   68.0390 N.am  181  CYS181     -0.1954
     99  CA        19.7370   24.9270   67.5190 C.3   181  CYS181      0.1843
    100  C         19.7970   24.1180   66.2220 C.2   181  CYS181      0.2625
    101  O         18.8150   23.4930   65.8260 O.2   181  CYS181     -0.2714
    102  CB        20.6890   24.3330   68.5720 C.3   181  CYS181      0.0997
    103  SG        22.4790   24.5060   68.2300 S.3   181  CYS181     -0.0797
    104  N         20.9500   24.1470   65.5620 N.am  182  GLN182     -0.1977
    105  CA        21.1870   23.3730   64.3500 C.3   182  GLN182      0.1601
    106  C         20.7090   21.9390   64.5430 C.2   182  GLN182      0.2287
    107  O         21.0030   21.3160   65.5630 O.2   182  GLN182     -0.2864
    108  CB        22.6850   23.3780   64.0300 C.3   182  GLN182      0.0394
    109  CG        23.1420   22.7440   62.7340 C.3   182  GLN182      0.0908
    110  CD        22.7490   23.5680   61.5280 C.2   182  GLN182      0.2608
    111  OE1       23.1240   24.7380   61.4120 O.2   182  GLN182     -0.2717
    112  NE2       21.9860   22.9650   60.6210 N.am  182  GLN182     -0.0878
    113  N         15.9580   22.3030   63.0980 N.3   185  SER185     -0.1217
    114  CA        15.3020   22.8850   61.9310 C.3   185  SER185      0.1889
    115  C         14.2570   21.9570   61.3100 C.2   185  SER185      0.2288
    116  O         14.4850   20.7560   61.1760 O.2   185  SER185     -0.2866
    117  CB        16.3530   23.2410   60.8720 C.3   185  SER185      0.2089
    118  OG        17.3110   24.1550   61.3860 O.3   185  SER185     -0.2183
    119  N         10.6800   25.3010   63.1760 N.3   203  VAL203     -0.1231
    120  CA        12.0330   25.7310   63.5040 C.3   203  VAL203      0.1692
    121  C         12.7590   26.1030   62.2060 C.2   203  VAL203      0.2593
    122  O         12.8330   25.3030   61.2720 O.2   203  VAL203     -0.2718
    123  CB        12.8070   24.6060   64.2220 C.3   203  VAL203      0.0266
    124  CG1       14.2020   25.0990   64.6230 C.3   203  VAL203      0.0020
    125  CG2       12.0350   24.1470   65.4420 C.3   203  VAL203      0.0020
    126  N         13.2760   27.3230   62.1310 N.am  204  SER204     -0.1938
    127  CA        13.8390   27.8030   60.8720 C.3   204  SER204      0.2055
    128  C         15.3280   28.1490   60.9270 C.2   204  SER204      0.2643
    129  O         16.1330   27.5290   60.2370 O.2   204  SER204     -0.2714
    130  CB        13.0480   29.0190   60.3770 C.3   204  SER204      0.2130
    131  OG        13.4670   29.3910   59.0760 O.3   204  SER204     -0.2179
    132  N         15.6930   29.1510   61.7230 N.am  205  TRP205     -0.1959
    133  CA        17.0900   29.5760   61.8150 C.3   205  TRP205      0.1771
    134  C         17.3570   30.4360   63.0460 C.2   205  TRP205      0.2620
    135  O         16.4270   30.8580   63.7390 O.2   205  TRP205     -0.2715
    136  CB        17.5050   30.3550   60.5580 C.3   205  TRP205      0.0590
    137  CG        16.7490   31.6610   60.3360 C.ar  205  TRP205      0.0006
    138  CD1       15.5890   31.8300   59.6220 C.ar  205  TRP205      0.0946
    139  CD2       17.1180   32.9670   60.8110 C.ar  205  TRP205      0.0152
    140  NE1       15.2190   33.1550   59.6280 N.ar  205  TRP205     -0.2442
    141  CE2       16.1380   33.8730   60.3490 C.ar  205  TRP205      0.0810
    142  CE3       18.1810   33.4580   61.5800 C.ar  205  TRP205      0.0012
    143  CZ2       16.1910   35.2430   60.6330 C.ar  205  TRP205      0.0191
    144  CZ3       18.2310   34.8200   61.8600 C.ar  205  TRP205      0.0001
    145  CH2       17.2420   35.6940   61.3880 C.ar  205  TRP205      0.0015
    146  N         18.6360   30.6900   63.3060 N.am  206  GLY206     -0.1940
    147  CA        19.0170   31.5600   64.4040 C.3   206  GLY206      0.2014
    148  C         20.5020   31.8850   64.4030 C.2   206  GLY206      0.2639
    149  O         21.3220   31.0680   63.9840 O.2   206  GLY206     -0.2714
    150  N         20.8520   33.0790   64.8760 N.am  207  GLU207     -0.1963
    151  CA        22.2540   33.4770   64.9710 C.3   207  GLU207      0.1733
    152  C         22.9310   32.7270   66.1170 C.2   207  GLU207      0.2617
    153  O         22.9640   33.1960   67.2540 O.2   207  GLU207     -0.2715
    154  CB        22.3550   34.9930   65.1870 C.3   207  GLU207      0.0429
    155  CG        21.8250   35.7060   63.9270 C.3   207  GLU207      0.1163
    156  CD        21.8660   37.2220   64.0420 C.2   207  GLU207      0.3649
    157  OE1       22.9780   37.7980   63.9920 O.co2 207  GLU207     -0.2457
    158  OE2       20.7860   37.8370   64.1810 O.co2 207  GLU207     -0.2457
    159  N         23.4640   31.5500   65.8100 N.am  208  GLY208     -0.1940
    160  CA        23.9350   30.6730   66.8620 C.3   208  GLY208      0.2014
    161  C         22.7890   30.2430   67.7580 C.2   208  GLY208      0.2639
    162  O         21.6230   30.2810   67.3510 O.2   208  GLY208     -0.2714
    163  N         23.1110   29.8390   68.9840 N.am  209  CYS209     -0.1967
    164  CA        22.1080   29.2560   69.8640 C.3   209  CYS209      0.1712
    165  C         22.2350   29.7040   71.3110 C.2   209  CYS209      0.2296
    166  O         23.2990   29.5870   71.9210 O.2   209  CYS209     -0.2864
    167  CB        22.1850   27.7340   69.7890 C.3   209  CYS209      0.0983
    168  SG        22.2400   27.1630   68.0910 S.3   209  CYS209     -0.0798
    169  N         17.2840   35.5240   69.4450 N.3   215  TYR215     -0.1227
    170  CA        16.1670   34.6000   69.6370 C.3   215  TYR215      0.1736
    171  C         16.1320   33.5480   68.5250 C.2   215  TYR215      0.2596
    172  O         16.8290   33.6750   67.5260 O.2   215  TYR215     -0.2718
    173  CB        14.8420   35.3720   69.6540 C.3   215  TYR215      0.0548
    174  CG        14.7660   36.4660   70.6970 C.ar  215  TYR215     -0.0200
    175  CD1       14.4200   36.1770   72.0050 C.ar  215  TYR215     -0.0009
    176  CD2       15.0440   37.7880   70.3700 C.ar  215  TYR215     -0.0009
    177  CE1       14.3510   37.1700   72.9680 C.ar  215  TYR215      0.0417
    178  CE2       14.9800   38.7910   71.3250 C.ar  215  TYR215      0.0417
    179  CZ        14.6320   38.4740   72.6240 C.ar  215  TYR215      0.1957
    180  OH        14.5780   39.4610   73.5830 O.3   215  TYR215     -0.2866
    181  N         15.3210   32.5090   68.7050 N.am  216  GLY216     -0.1942
    182  CA        15.1070   31.5490   67.6330 C.3   216  GLY216      0.2014
    183  C         14.1090   32.0630   66.6040 C.2   216  GLY216      0.2639
    184  O         13.1110   32.6850   66.9540 O.2   216  GLY216     -0.2714
    185  N         14.3680   31.8120   65.3290 N.am  217  ILE217     -0.1963
    186  CA        13.4500   32.2650   64.2820 C.3   217  ILE217      0.1727
    187  C         12.6380   31.1020   63.7150 C.2   217  ILE217      0.2616
    188  O         13.1870   30.0780   63.3090 O.2   217  ILE217     -0.2715
    189  CB        14.1980   32.9520   63.1190 C.3   217  ILE217      0.0290
    190  CG1       15.1850   33.9910   63.6620 C.3   217  ILE217      0.0022
    191  CG2       13.1860   33.6400   62.1880 C.3   217  ILE217      0.0023
    192  CD1       14.5200   35.1730   64.3670 C.3   217  ILE217      0.0001
    193  N         11.3230   31.2800   63.6900 N.am  218  TYR218     -0.1974
    194  CA        10.4000   30.2020   63.3670 C.3   218  TYR218      0.1639
    195  C          9.5240   30.6420   62.2140 C.2   218  TYR218      0.2290
    196  O          9.1510   31.8120   62.1270 O.2   218  TYR218     -0.2864
    197  CB         9.5130   29.8710   64.5750 C.3   218  TYR218      0.0560
    198  CG        10.2730   29.3260   65.7690 C.ar  218  TYR218     -0.0198
    199  CD1       10.9420   30.1760   66.6390 C.ar  218  TYR218     -0.0009
    200  CD2       10.3220   27.9590   66.0190 C.ar  218  TYR218     -0.0009
    201  CE1       11.6440   29.6780   67.7280 C.ar  218  TYR218      0.0417
    202  CE2       11.0150   27.4540   67.1000 C.ar  218  TYR218      0.0417
    203  CZ        11.6760   28.3180   67.9510 C.ar  218  TYR218      0.1957
    204  OH        12.3710   27.8170   69.0230 O.3   218  TYR218     -0.2866
@<TRIPOS>BOND
     1     9     8    1
     2     8     7    1
     3     7     6    1
     4    17    16   ar
     5    14    15    1
     6    14    11    1
     7    15    16    1
     8    16    18   ar
     9     1     2    1
    10     6     5    1
    11    10    11    1
    12    10     3   am
    13    11    12    1
    14     5     2    1
    15     2     3    1
    16    25    23    1
    17     3     4    2
    18    12    19   am
    19    12    13    2
    20    19    20    1
    21    23    20    1
    22    23    24    1
    23    20    21    1
    24    26    21   am
    25    26    27    1
    26    21    22    2
    27    27    28    1
    28    27    30    1
    29    28    29    2
    30    34    32   ar
    31    34    36   ar
    32    32    31   ar
    33    37    36    1
    34    36    35   ar
    35    30    31    1
    36    31    33   ar
    37    74    73    1
    38    74    76    1
    39    75    73    1
    40    73    70    1
    41    35    33   ar
    42    84    83    1
    43    66    64   ar
    44    66    68   ar
    45    72    71    2
    46    64    63   ar
    47    70    69    1
    48    70    71    1
    49    69    60   am
    50    68    67   ar
    51    63    62    1
    52    63    65   ar
    53    83    82    1
    54    62    59    1
    55    82    81    1
    56   131   130    1
    57    60    59    1
    58    60    61    2
    59    59    58    1
    60    77    78    1
    61   138   140   ar
    62   138   137   ar
    63   140   141   ar
    64    67    65   ar
    65   129   128    2
    66   137   136    1
    67   137   139   ar
    68   141   143   ar
    69   141   139   ar
    70   130   127    1
    71    81    78    1
    72   136   133    1
    73    78    79    1
    74   112   110   am
    75   143   145   ar
    76   139   142   ar
    77   127   128    1
    78   127   126    1
    79   117   118    1
    80   117   114    1
    81   128   132   am
    82   116   115    2
    83   122   121    2
    84   115   114    1
    85   145   144   ar
    86   111   110    2
    87   110   109    1
    88   142   144   ar
    89   132   133    1
    90   133   134    1
    91    79    80    2
    92   114   113    1
    93   196   195    2
    94   126   121   am
    95   191   189    1
    96   121   120    1
    97   195   194    1
    98   109   108    1
    99   134   146   am
   100   134   135    2
   101   189   190    1
   102   189   186    1
   103   119   120    1
   104   146   147    1
   105   188   187    2
   106   194   193    1
   107   194   197    1
   108   120   123    1
   109   190   192    1
   110   193   187   am
   111   187   186    1
   112   155   156    1
   113   155   154    1
   114   149   148    2
   115   157   156   ar
   116   108   105    1
   117   156   158   ar
   118   123   124    1
   119   123   125    1
   120   186   185    1
   121   105   106    1
   122   105   104    1
   123    48    46    1
   124   148   147    1
   125   148   150   am
   126   106   107    2
   127   197   198    1
   128    47    46    1
   129   150   151    1
   130    46    45    2
   131   151   154    1
   132   151   152    1
   133   185   183   am
   134   104   100   am
   135   198   200   ar
   136   198   199   ar
   137   159   152   am
   138   159   160    1
   139    45    44    1
   140   101   100    2
   141   200   202   ar
   142   152   153    2
   143   100    99    1
   144    44    43    1
   145   183   184    2
   146   183   182    1
   147   199   201   ar
   148   160   161    1
   149   202   203   ar
   150   162   161    2
   151    43    42    1
   152    99    98    1
   153    99   102    1
   154   172   171    2
   155    57    55   ar
   156   182   181    1
   157   201   203   ar
   158   161   163   am
   159    52    51    2
   160   203   204    1
   161    98    95   am
   162   168   167    1
   163   103   102    1
   164    38    39    1
   165    54    55    1
   166    54    53    1
   167    55    56   ar
   168    97    94    1
   169   171   181   am
   170   171   170    1
   171    42    39    1
   172    95    96    2
   173    95    94    1
   174   163   164    1
   175    51    50    1
   176    39    40    1
   177   169   170    1
   178    94    93    1
   179   170   173    1
   180   173   174    1
   181    50    53    1
   182    50    49    1
   183   167   164    1
   184   164   165    1
   185   176   174   ar
   186   176   178   ar
   187    91    90   ar
   188    92    90   ar
   189    40    41    2
   190    93    87   am
   191   174   175   ar
   192    90    89    1
   193   165   166    2
   194   178   179   ar
   195    87    88    2
   196    87    86    1
   197   175   177   ar
   198    89    86    1
   199    86    85    1
   200   179   177   ar
   201   179   180    1
