@<TRIPOS>MOLECULE
tmp/2g00A00.pdb
 216 214 0 0 0
SMALL
GASTEIGER

@<TRIPOS>ATOM
      1  N         17.7950    5.3810   68.1880 N.3    82  LYS82      -0.1231
      2  CA        18.7060    5.3510   67.0570 C.3    82  LYS82       0.1693
      3  C         19.2240    3.9290   66.8900 C.2    82  LYS82       0.2592
      4  O         19.8150    3.5830   65.8780 O.2    82  LYS82      -0.2718
      5  CB        19.8710    6.3180   67.2870 C.3    82  LYS82       0.0285
      6  CG        20.4030    6.3410   68.7180 C.3    82  LYS82       0.0035
      7  CD        19.4640    7.0910   69.6670 C.3    82  LYS82       0.0206
      8  CE        18.9640    6.1910   70.8050 C.3    82  LYS82       0.1093
      9  NZ        18.1550    6.9190   71.8350 N.3    82  LYS82      -0.1314
     10  N         18.9770    3.1030   67.9000 N.am   83  GLU83      -0.1966
     11  CA        19.4230    1.7150   67.8840 C.3    83  GLU83       0.1733
     12  C         18.7090    0.9240   66.7920 C.2    83  GLU83       0.2617
     13  O         19.2990    0.0860   66.1180 O.2    83  GLU83      -0.2715
     14  CB        19.1580    1.0790   69.2520 C.3    83  GLU83       0.0429
     15  CG        20.2930    0.2100   69.7660 C.3    83  GLU83       0.1163
     16  CD        21.5920    0.9820   69.9240 C.2    83  GLU83       0.3649
     17  OE1       21.6180    1.9640   70.7010 O.co2  83  GLU83      -0.2457
     18  OE2       22.5870    0.6040   69.2680 O.co2  83  GLU83      -0.2457
     19  N         17.4290    1.2280   66.6210 N.am   84  THR84      -0.1937
     20  CA        16.5870    0.5510   65.6510 C.3    84  THR84       0.2028
     21  C         16.0580    1.5150   64.6120 C.2    84  THR84       0.2642
     22  O         15.7680    1.1410   63.4950 O.2    84  THR84      -0.2714
     23  CB        15.3850   -0.0690   66.3520 C.3    84  THR84       0.1808
     24  OG1       14.6760    0.9590   67.0610 O.3    84  THR84      -0.2208
     25  CG2       15.8340   -1.1410   67.3370 C.3    84  THR84       0.0379
     26  N         15.9420    2.7710   65.0130 N.am   85  TYR85      -0.1973
     27  CA        15.4100    3.8030   64.1460 C.3    85  TYR85       0.1639
     28  C         13.9040    3.6050   63.9710 C.2    85  TYR85       0.2290
     29  O         13.3060    4.1300   63.0250 O.2    85  TYR85      -0.2864
     30  CB        16.1200    3.7920   62.7900 C.3    85  TYR85       0.0560
     31  CG        17.1410    4.8850   62.6830 C.ar   85  TYR85      -0.0198
     32  CD1       18.2560    4.8950   63.5020 C.ar   85  TYR85      -0.0009
     33  CD2       16.9400    5.9640   61.8360 C.ar   85  TYR85      -0.0009
     34  CE1       19.1400    5.9610   63.4920 C.ar   85  TYR85       0.0417
     35  CE2       17.8190    7.0370   61.8160 C.ar   85  TYR85       0.0417
     36  CZ        18.9140    7.0290   62.6490 C.ar   85  TYR85       0.1957
     37  OH        19.7740    8.0950   62.6520 O.3    85  TYR85      -0.2866
     38  N         21.3690   16.1100   50.2120 N.3   132  ARG132     -0.1245
     39  CA        22.4490   15.8770   49.2630 C.3   132  ARG132      0.1563
     40  C         21.9840   15.3170   47.9250 C.2   132  ARG132      0.2260
     41  O         21.1510   14.4060   47.8670 O.2   132  ARG132     -0.2867
     42  CB        23.4590   14.9040   49.8460 C.3   132  ARG132      0.0307
     43  CG        23.9470   15.2470   51.2110 C.3   132  ARG132      0.0489
     44  CD        24.9590   14.2190   51.6140 C.3   132  ARG132      0.2205
     45  NE        25.4490   14.4620   52.9560 N.pl3 132  ARG132     -0.0865
     46  CZ        26.3940   13.7340   53.5300 C.cat 132  ARG132      0.5346
     47  NH1       26.9460   12.7240   52.8700 N.pl3 132  ARG132      0.1354
     48  NH2       26.7790   14.0110   54.7630 N.pl3 132  ARG132      0.1354
     49  N         25.6130   11.0670   47.3280 N.3   135  GLU135     -0.1231
     50  CA        25.8710   10.5020   48.6500 C.3   135  GLU135      0.1699
     51  C         27.0240   11.1700   49.3950 C.2   135  GLU135      0.2592
     52  O         27.0500   11.1800   50.6200 O.2   135  GLU135     -0.2718
     53  CB        26.1390    9.0050   48.5540 C.3   135  GLU135      0.0402
     54  CG        26.2650    8.3510   49.9040 C.3   135  GLU135      0.1161
     55  CD        26.4840    6.8730   49.8040 C.2   135  GLU135      0.3649
     56  OE1       25.6620    6.2040   49.1520 O.co2 135  GLU135     -0.2457
     57  OE2       27.4720    6.3850   50.3810 O.co2 135  GLU135     -0.2457
     58  N         27.9760   11.7210   48.6480 N.am  136  LYS136     -0.1980
     59  CA        29.1280   12.4020   49.2390 C.3   136  LYS136      0.1596
     60  C         29.1170   13.9170   48.9940 C.2   136  LYS136      0.2287
     61  O         30.0260   14.6410   49.4300 O.2   136  LYS136     -0.2864
     62  CB        30.4300   11.7830   48.7090 C.3   136  LYS136      0.0298
     63  CG        31.0440   10.7730   49.6730 C.3   136  LYS136      0.0038
     64  CD        30.0830    9.6210   49.9850 C.3   136  LYS136      0.0206
     65  CE        30.3610    8.9870   51.3560 C.3   136  LYS136      0.1093
     66  NZ        29.8690    9.8290   52.4910 N.3   136  LYS136     -0.1314
     67  N         19.0790   -4.1260   57.8210 N.3   162  PHE162     -0.1227
     68  CA        18.4810   -3.8000   59.1090 C.3   162  PHE162      0.1736
     69  C         17.0110   -4.1990   59.2010 C.2   162  PHE162      0.2595
     70  O         16.3140   -4.2840   58.1970 O.2   162  PHE162     -0.2718
     71  CB        18.6330   -2.3030   59.3590 C.3   162  PHE162      0.0547
     72  CG        20.0570   -1.8440   59.3740 C.ar  162  PHE162     -0.0202
     73  CD1       20.8220   -1.9500   60.5260 C.ar  162  PHE162     -0.0042
     74  CD2       20.6470   -1.3160   58.2310 C.ar  162  PHE162     -0.0042
     75  CE1       22.1590   -1.5290   60.5460 C.ar  162  PHE162     -0.0003
     76  CE2       21.9870   -0.8920   58.2400 C.ar  162  PHE162     -0.0003
     77  CZ        22.7400   -1.0010   59.4040 C.ar  162  PHE162     -0.0000
     78  N         16.5530   -4.4450   60.4210 N.am  163  ILE163     -0.1980
     79  CA        15.1660   -4.8330   60.6640 C.3   163  ILE163      0.1595
     80  C         14.1750   -3.7690   60.2150 C.2   163  ILE163      0.2287
     81  O         14.1220   -2.6850   60.7930 O.2   163  ILE163     -0.2864
     82  CB        14.8890   -5.1130   62.1780 C.3   163  ILE163      0.0276
     83  CG1       15.6100   -4.0760   63.0590 C.3   163  ILE163      0.0022
     84  CG2       15.3020   -6.5370   62.5430 C.3   163  ILE163      0.0022
     85  CD1       17.1290   -4.3020   63.2270 C.3   163  ILE163      0.0001
     86  N         17.0620    8.5910   44.4930 N.3   179  ASP179     -0.1225
     87  CA        16.7160    8.2210   45.8530 C.3   179  ASP179      0.1805
     88  C         16.8160    9.4640   46.7140 C.2   179  ASP179      0.2598
     89  O         17.3010   10.4930   46.2710 O.2   179  ASP179     -0.2718
     90  CB        17.7180    7.1730   46.3420 C.3   179  ASP179      0.1424
     91  CG        17.2230    6.3930   47.5400 C.2   179  ASP179      0.3668
     92  OD1       15.9870    6.3050   47.7200 O.co2 179  ASP179     -0.2456
     93  OD2       18.0680    5.8450   48.2850 O.co2 179  ASP179     -0.2456
     94  N         16.3290    9.3710   47.9440 N.am  180  ALA180     -0.1966
     95  CA        16.4300   10.4860   48.8650 C.3   180  ALA180      0.1728
     96  C         17.8520   10.3460   49.3730 C.2   180  ALA180      0.2616
     97  O         18.5850    9.4480   48.9380 O.2   180  ALA180     -0.2715
     98  CB        15.4480   10.3340   50.0020 C.3   180  ALA180      0.0334
     99  N         18.2530   11.2200   50.2830 N.am  181  CYS181     -0.1954
    100  CA        19.6030   11.1590   50.8200 C.3   181  CYS181      0.1843
    101  C         19.6810   11.9860   52.0930 C.2   181  CYS181      0.2625
    102  O         18.6910   12.5750   52.5200 O.2   181  CYS181     -0.2714
    103  CB        20.6040   11.6820   49.7880 C.3   181  CYS181      0.0997
    104  SG        22.3330   11.3620   50.1980 S.3   181  CYS181     -0.0797
    105  N         20.8600   12.0260   52.7010 N.am  182  GLN182     -0.1977
    106  CA        21.0230   12.7730   53.9300 C.3   182  GLN182      0.1601
    107  C         20.6290   14.2360   53.7440 C.2   182  GLN182      0.2287
    108  O         20.9670   14.8630   52.7440 O.2   182  GLN182     -0.2864
    109  CB        22.4610   12.6620   54.4180 C.3   182  GLN182      0.0394
    110  CG        22.6850   13.3150   55.7690 C.3   182  GLN182      0.0908
    111  CD        23.9860   12.9070   56.4010 C.2   182  GLN182      0.2608
    112  OE1       24.3410   13.3900   57.4640 O.2   182  GLN182     -0.2717
    113  NE2       24.7060   12.0020   55.7470 N.am  182  GLN182     -0.0878
    114  N         15.9190   13.9060   55.4550 N.3   185  SER185     -0.1217
    115  CA        15.2430   13.3340   56.6200 C.3   185  SER185      0.1889
    116  C         14.1370   14.2030   57.2060 C.2   185  SER185      0.2288
    117  O         14.2800   15.4050   57.2950 O.2   185  SER185     -0.2866
    118  CB        16.2510   13.0360   57.7310 C.3   185  SER185      0.2089
    119  OG        17.1230   11.9900   57.3720 O.3   185  SER185     -0.2183
    120  N         10.7000   10.8360   55.4340 N.3   203  VAL203     -0.1231
    121  CA        12.0520   10.3960   55.0810 C.3   203  VAL203      0.1692
    122  C         12.7300    9.9460   56.3980 C.2   203  VAL203      0.2593
    123  O         12.8030   10.7020   57.3740 O.2   203  VAL203     -0.2718
    124  CB        12.8820   11.5500   54.4120 C.3   203  VAL203      0.0266
    125  CG1       14.2630   11.0350   53.9960 C.3   203  VAL203      0.0020
    126  CG2       12.1400   12.1110   53.1930 C.3   203  VAL203      0.0020
    127  N         13.2120    8.7070   56.4300 N.am  204  SER204     -0.1938
    128  CA        13.8270    8.1730   57.6410 C.3   204  SER204      0.2055
    129  C         15.3070    7.7940   57.5110 C.2   204  SER204      0.2643
    130  O         16.1760    8.4360   58.0860 O.2   204  SER204     -0.2714
    131  CB        13.0240    6.9570   58.1180 C.3   204  SER204      0.2130
    132  OG        13.3660    6.6040   59.4480 O.3   204  SER204     -0.2179
    133  N         15.5930    6.7310   56.7710 N.am  205  TRP205     -0.1959
    134  CA        16.9750    6.3130   56.6100 C.3   205  TRP205      0.1771
    135  C         17.1500    5.4120   55.4070 C.2   205  TRP205      0.2620
    136  O         16.1910    5.0300   54.7530 O.2   205  TRP205     -0.2715
    137  CB        17.4610    5.5840   57.8570 C.3   205  TRP205      0.0590
    138  CG        16.6690    4.3520   58.1500 C.ar  205  TRP205      0.0006
    139  CD1       15.5050    4.2750   58.8510 C.ar  205  TRP205      0.0946
    140  CD2       16.9820    3.0100   57.7380 C.ar  205  TRP205      0.0152
    141  NE1       15.0710    2.9710   58.9080 N.ar  205  TRP205     -0.2442
    142  CE2       15.9580    2.1730   58.2350 C.ar  205  TRP205      0.0810
    143  CE3       18.0340    2.4340   57.0000 C.ar  205  TRP205      0.0012
    144  CZ2       15.9470    0.7830   58.0210 C.ar  205  TRP205      0.0191
    145  CZ3       18.0260    1.0470   56.7870 C.ar  205  TRP205      0.0001
    146  CH2       16.9860    0.2400   57.3010 C.ar  205  TRP205      0.0015
    147  N         18.4030    5.0800   55.1320 N.am  206  GLY206     -0.1940
    148  CA        18.7280    4.2260   54.0120 C.3   206  GLY206      0.2014
    149  C         20.2000    3.8800   54.0890 C.2   206  GLY206      0.2639
    150  O         20.9810    4.5940   54.7140 O.2   206  GLY206     -0.2714
    151  N         20.5760    2.7720   53.4620 N.am  207  GLU207     -0.1963
    152  CA        21.9670    2.3290   53.4430 C.3   207  GLU207      0.1733
    153  C         22.6350    3.0280   52.2470 C.2   207  GLU207      0.2617
    154  O         22.6860    2.5030   51.1300 O.2   207  GLU207     -0.2715
    155  CB        21.9960    0.7970   53.3270 C.3   207  GLU207      0.0429
    156  CG        21.2100    0.1190   54.4620 C.3   207  GLU207      0.1163
    157  CD        20.5690   -1.2050   54.0670 C.2   207  GLU207      0.3649
    158  OE1       21.3180   -2.1780   53.8590 O.co2 207  GLU207     -0.2457
    159  OE2       19.3150   -1.2670   53.9630 O.co2 207  GLU207     -0.2457
    160  N         23.1260    4.2350   52.5010 N.am  208  GLY208     -0.1940
    161  CA        23.7390    5.0210   51.4520 C.3   208  GLY208      0.2014
    162  C         22.6330    5.7480   50.7220 C.2   208  GLY208      0.2639
    163  O         21.6060    6.0420   51.3060 O.2   208  GLY208     -0.2714
    164  N         22.8390    6.0350   49.4420 N.am  209  CYS209     -0.1967
    165  CA        21.8250    6.7230   48.6500 C.3   209  CYS209      0.1712
    166  C         21.8680    6.3160   47.1880 C.2   209  CYS209      0.2296
    167  O         22.8450    6.5590   46.5150 O.2   209  CYS209     -0.2864
    168  CB        22.0140    8.2340   48.7350 C.3   209  CYS209      0.0983
    169  SG        22.0810    8.8520   50.4050 S.3   209  CYS209     -0.0798
    170  N         22.0240    3.3540   45.9320 N.3   211  ARG211     -0.1245
    171  CA        22.7920    2.1390   45.7030 C.3   211  ARG211      0.1563
    172  C         21.9670    1.0430   45.0400 C.2   211  ARG211      0.2260
    173  O         20.7300    0.9930   45.1640 O.2   211  ARG211     -0.2867
    174  CB        23.3720    1.6400   47.0200 C.3   211  ARG211      0.0307
    175  CG        24.2780    2.6620   47.6870 C.3   211  ARG211      0.0489
    176  CD        24.8570    2.1560   48.9950 C.3   211  ARG211      0.2205
    177  NE        25.9240    3.0310   49.4730 N.pl3 211  ARG211     -0.0865
    178  CZ        26.6590    2.8080   50.5630 C.cat 211  ARG211      0.5346
    179  NH1       26.4480    1.7300   51.3090 N.pl3 211  ARG211      0.1354
    180  NH2       27.6180    3.6610   50.9050 N.pl3 211  ARG211      0.1354
    181  N         16.9550    0.5030   48.7920 N.3   215  TYR215     -0.1227
    182  CA        15.8070    1.3970   48.6840 C.3   215  TYR215      0.1736
    183  C         15.7600    2.4120   49.8180 C.2   215  TYR215      0.2596
    184  O         16.5630    2.3730   50.7260 O.2   215  TYR215     -0.2718
    185  CB        14.5290    0.5730   48.7040 C.3   215  TYR215      0.0548
    186  CG        14.5030   -0.5050   47.6560 C.ar  215  TYR215     -0.0200
    187  CD1       14.1970   -0.2070   46.3390 C.ar  215  TYR215     -0.0009
    188  CD2       14.7840   -1.8270   47.9830 C.ar  215  TYR215     -0.0009
    189  CE1       14.1650   -1.1970   45.3670 C.ar  215  TYR215      0.0417
    190  CE2       14.7580   -2.8310   47.0150 C.ar  215  TYR215      0.0417
    191  CZ        14.4430   -2.5080   45.7080 C.ar  215  TYR215      0.1957
    192  OH        14.3780   -3.4970   44.7460 O.3   215  TYR215     -0.2866
    193  N         14.7980    3.3250   49.7460 N.am  216  GLY216     -0.1942
    194  CA        14.6610    4.3250   50.7870 C.3   216  GLY216      0.2014
    195  C         13.7520    3.8210   51.8890 C.2   216  GLY216      0.2639
    196  O         12.7400    3.1950   51.6230 O.2   216  GLY216     -0.2714
    197  N         14.1200    4.0840   53.1360 N.am  217  ILE217     -0.1963
    198  CA        13.2940    3.6430   54.2520 C.3   217  ILE217      0.1727
    199  C         12.5470    4.8370   54.8510 C.2   217  ILE217      0.2616
    200  O         13.1480    5.7690   55.3620 O.2   217  ILE217     -0.2715
    201  CB        14.1440    2.9410   55.3360 C.3   217  ILE217      0.0290
    202  CG1       15.1590    2.0040   54.6790 C.3   217  ILE217      0.0022
    203  CG2       13.2480    2.1120   56.2320 C.3   217  ILE217      0.0023
    204  CD1       14.5390    0.9410   53.7620 C.3   217  ILE217      0.0001
    205  N         11.2190    4.7840   54.7630 N.am  218  TYR218     -0.1974
    206  CA        10.3530    5.8520   55.2510 C.3   218  TYR218      0.1639
    207  C          9.4940    5.4390   56.4280 C.2   218  TYR218      0.2290
    208  O          9.1240    4.2810   56.5650 O.2   218  TYR218     -0.2864
    209  CB         9.4010    6.3320   54.1490 C.3   218  TYR218      0.0560
    210  CG        10.0790    6.8600   52.9150 C.ar  218  TYR218     -0.0198
    211  CD1       10.7390    6.0040   52.0440 C.ar  218  TYR218     -0.0009
    212  CD2       10.0960    8.2140   52.6400 C.ar  218  TYR218     -0.0009
    213  CE1       11.4090    6.4830   50.9280 C.ar  218  TYR218      0.0417
    214  CE2       10.7650    8.7100   51.5270 C.ar  218  TYR218      0.0417
    215  CZ        11.4210    7.8340   50.6790 C.ar  218  TYR218      0.1957
    216  OH        12.1030    8.3140   49.5980 O.3   218  TYR218     -0.2866
@<TRIPOS>BOND
     1    86    87    1
     2   192   191    1
     3   172   173    2
     4   172   171    1
     5   189   191   ar
     6   189   187   ar
     7   171   170    1
     8   171   174    1
     9   191   190   ar
    10    87    90    1
    11    87    88    1
    12    89    88    2
    13   187   186   ar
    14    90    91    1
    15   167   166    2
    16    88    94   am
    17   190   188   ar
    18   174   175    1
    19   166   165    1
    20    49    50    1
    21    91    92   ar
    22    91    93   ar
    23   186   188   ar
    24   186   185    1
    25   175   176    1
    26    41    40    2
    27    40    39    1
    28    94    95    1
    29    53    50    1
    30    53    54    1
    31    58    59    1
    32    58    51   am
    33   165   168    1
    34   165   164    1
    35    50    51    1
    36   182   185    1
    37   182   181    1
    38   182   183    1
    39    62    59    1
    40    62    63    1
    41   168   169    1
    42    95    96    1
    43    95    98    1
    44    97    96    2
    45    60    59    1
    46    60    61    2
    47   176   177    1
    48    56    55   ar
    49    39    42    1
    50    39    38    1
    51    96    99   am
    52    51    52    2
    53   164   162   am
    54   177   178    2
    55   216   215    1
    56    63    64    1
    57   193   183   am
    58   193   194    1
    59   103   104    1
    60   103   100    1
    61    55    54    1
    62    55    57   ar
    63   183   184    2
    64    42    43    1
    65    64    65    1
    66   104   169    1
    67    99   100    1
    68   178   180    1
    69   178   179    1
    70   215   213   ar
    71   215   214   ar
    72   162   163    2
    73   162   161    1
    74   194   195    1
    75   100   101    1
    76   213   211   ar
    77   154   153    2
    78    43    44    1
    79    65    66    1
    80   161   160    1
    81   214   212   ar
    82    44    45    1
    83   196   195    2
    84   195   197   am
    85   211   210   ar
    86   101   102    2
    87   101   105   am
    88   153   160   am
    89   153   152    1
    90   212   210   ar
    91   105   106    1
    92   108   107    2
    93    47    46    1
    94   210   209    1
    95    45    46    2
    96   197   198    1
    97   126   124    1
    98   155   152    1
    99   155   156    1
   100   152   151    1
   101   151   149   am
   102    46    48    1
   103   107   106    1
   104   204   202    1
   105   158   157   ar
   106   106   109    1
   107   159   157   ar
   108   125   124    1
   109   148   149    1
   110   148   147    1
   111   157   156    1
   112   149   150    2
   113   209   206    1
   114   198   199    1
   115   198   201    1
   116   124   121    1
   117   109   110    1
   118   202   201    1
   119   136   135    2
   120   205   199   am
   121   205   206    1
   122   199   200    2
   123   121   120    1
   124   121   122    1
   125   147   135   am
   126   206   207    1
   127   201   203    1
   128   135   134    1
   129   114   115    1
   130   113   111   am
   131   110   111    1
   132   122   127   am
   133   122   123    2
   134   111   112    2
   135   207   208    2
   136   127   128    1
   137   134   133    1
   138   134   137    1
   139   115   116    1
   140   115   118    1
   141   133   129   am
   142   145   143   ar
   143   145   146   ar
   144   143   140   ar
   145   116   117    2
   146   146   144   ar
   147   119   118    1
   148   129   128    1
   149   129   130    2
   150   128   131    1
   151   140   138   ar
   152   140   142   ar
   153    67    68    1
   154   137   138    1
   155   144   142   ar
   156   131   132    1
   157   138   139   ar
   158    70    69    2
   159    74    76   ar
   160    74    72   ar
   161   142   141   ar
   162    76    77   ar
   163   139   141   ar
   164    68    69    1
   165    68    71    1
   166    69    78   am
   167    71    72    1
   168    72    73   ar
   169    77    75   ar
   170    80    79    1
   171    80    81    2
   172    78    79    1
   173    73    75   ar
   174    79    82    1
   175    35    33   ar
   176    35    36   ar
   177    33    31   ar
   178    82    84    1
   179    82    83    1
   180    36    37    1
   181    36    34   ar
   182    31    30    1
   183    31    32   ar
   184    30    27    1
   185    29    28    2
   186    83    85    1
   187    34    32   ar
   188    22    21    2
   189    28    27    1
   190    27    26    1
   191    21    26   am
   192    21    20    1
   193    20    23    1
   194    20    19    1
   195     4     3    2
   196    13    12    2
   197    23    24    1
   198    23    25    1
   199    19    12   am
   200    12    11    1
   201     3     2    1
   202     3    10   am
   203     2     5    1
   204     2     1    1
   205     5     6    1
   206    11    10    1
   207    11    14    1
   208     6     7    1
   209    14    15    1
   210    18    16   ar
   211     7     8    1
   212    15    16    1
   213    16    17   ar
   214     8     9    1
