@<TRIPOS>MOLECULE
tmp/2g01C01.pdb
 116 107 0 0 0
SMALL
GASTEIGER

@<TRIPOS>ATOM
      1  N         -5.6260  144.8840   52.1220 N.3    24  ILE24      -0.1231
      2  CA        -4.5900  145.7370   51.5450 C.3    24  ILE24       0.1692
      3  C         -3.7040  144.9730   50.5380 C.2    24  ILE24       0.2592
      4  O         -3.1620  145.5570   49.5990 O.2    24  ILE24      -0.2718
      5  CB        -3.7360  146.3750   52.6930 C.3    24  ILE24       0.0266
      6  CG1       -2.8260  145.3300   53.3450 C.3    24  ILE24       0.0019
      7  CG2       -4.6690  146.9610   53.7570 C.3    24  ILE24       0.0020
      8  CD1       -1.6000  144.9560   52.5160 C.3    24  ILE24       0.0001
      9  N         -3.5830  143.6620   50.7450 N.am   25  GLY25      -0.1957
     10  CA        -2.7830  142.8310   49.8610 C.3    25  GLY25       0.1869
     11  C         -2.5640  141.4020   50.3500 C.2    25  GLY25       0.2309
     12  O         -2.9810  141.0320   51.4520 O.2    25  GLY25      -0.2863
     13  N         -2.0350  139.7430   54.0100 N.3    32  VAL32      -0.1245
     14  CA        -1.8100  140.9000   54.8680 C.3    32  VAL32       0.1561
     15  C         -2.8950  141.9450   54.6840 C.2    32  VAL32       0.2260
     16  O         -3.2070  142.3400   53.5590 O.2    32  VAL32      -0.2867
     17  CB        -0.4550  141.5780   54.5730 C.3    32  VAL32       0.0252
     18  CG1       -0.1900  142.6660   55.6020 C.3    32  VAL32       0.0019
     19  CG2        0.6600  140.5520   54.5820 C.3    32  VAL32       0.0019
     20  N         -0.3890  146.0360   60.5160 N.3    45  ALA45      -0.1245
     21  CA        -0.5080  145.0210   59.4740 C.3    45  ALA45       0.1562
     22  C         -0.7090  143.6560   60.1010 C.2    45  ALA45       0.2260
     23  O         -0.0550  143.3010   61.0810 O.2    45  ALA45      -0.2867
     24  CB         0.7350  144.9920   58.6120 C.3    45  ALA45       0.0290
     25  N         -0.7480  139.6960   58.9760 N.3    47  LYS47      -0.1245
     26  CA        -0.4710  138.6530   57.9940 C.3    47  LYS47       0.1561
     27  C         -1.0460  137.3440   58.4740 C.2    47  LYS47       0.2260
     28  O         -0.7570  136.9100   59.5790 O.2    47  LYS47      -0.2867
     29  CB         1.0440  138.4880   57.7970 C.3    47  LYS47       0.0271
     30  CG         1.4140  137.4630   56.7280 C.3    47  LYS47       0.0035
     31  CD         2.9010  137.4680   56.3700 C.3    47  LYS47       0.0206
     32  CE         3.1510  136.6020   55.1270 C.3    47  LYS47       0.1093
     33  NZ         4.5860  136.5130   54.7250 N.3    47  LYS47      -0.1314
     34  N         10.9920  145.2000   60.0570 N.3    78  ILE78      -0.1245
     35  CA         9.6660  145.2540   60.6700 C.3    78  ILE78       0.1561
     36  C          9.5600  144.7640   62.1050 C.2    78  ILE78       0.2260
     37  O          9.5920  143.5600   62.3680 O.2    78  ILE78      -0.2867
     38  CB         8.6520  144.4620   59.8390 C.3    78  ILE78       0.0252
     39  CG1        8.4040  145.1790   58.5150 C.3    78  ILE78       0.0019
     40  CG2        7.3660  144.2930   60.6180 C.3    78  ILE78       0.0019
     41  CD1        7.8290  146.5680   58.6730 C.3    78  ILE78       0.0001
     42  N          2.2980  143.5850   63.0920 N.3   100  MET100     -0.1230
     43  CA         3.5500  144.3250   63.1450 C.3   100  MET100      0.1702
     44  C          3.3740  145.7750   62.7220 C.2   100  MET100      0.2592
     45  O          2.4830  146.0790   61.9280 O.2   100  MET100     -0.2718
     46  CB         4.5560  143.6330   62.2350 C.3   100  MET100      0.0401
     47  CG         4.0100  143.3690   60.8380 C.3   100  MET100      0.0596
     48  SD         4.8970  142.0570   59.9820 S.3   100  MET100     -0.1393
     49  CE         3.6330  140.7920   59.9050 C.3   100  MET100      0.0692
     50  N          4.2320  146.6590   63.2440 N.am  101  GLU101     -0.1966
     51  CA         4.1630  148.0880   62.9360 C.3   101  GLU101      0.1733
     52  C          3.9360  148.3000   61.4520 C.2   101  GLU101      0.2616
     53  O          4.5730  147.6620   60.6100 O.2   101  GLU101     -0.2715
     54  CB         5.4280  148.8240   63.3990 C.3   101  GLU101      0.0429
     55  CG         6.7320  148.3470   62.7870 C.3   101  GLU101      0.1163
     56  CD         7.9160  149.2060   63.2120 C.2   101  GLU101      0.3649
     57  OE1        7.9260  150.4100   62.8780 O.co2 101  GLU101     -0.2457
     58  OE2        8.8310  148.6810   63.8820 O.co2 101  GLU101     -0.2457
     59  N          3.0050  149.1970   61.1480 N.am  102  LEU102     -0.1963
     60  CA         2.6200  149.4960   59.7760 C.3   102  LEU102      0.1728
     61  C          3.3110  150.7340   59.2050 C.2   102  LEU102      0.2616
     62  O          3.6630  151.6630   59.9410 O.2   102  LEU102     -0.2715
     63  CB         1.0930  149.6380   59.7190 C.3   102  LEU102      0.0311
     64  CG         0.3630  150.0220   58.4310 C.3   102  LEU102      0.0022
     65  CD1        0.7130  149.0940   57.2890 C.3   102  LEU102      0.0001
     66  CD2       -1.1130  149.9690   58.7020 C.3   102  LEU102      0.0001
     67  N          3.5050  150.7250   57.8860 N.am  103  MET103     -0.1963
     68  CA         4.1650  151.8160   57.1740 C.3   103  MET103      0.1736
     69  C          3.2230  152.6190   56.2850 C.2   103  MET103      0.2616
     70  O          2.0060  152.4500   56.3420 O.2   103  MET103     -0.2715
     71  CB         5.3000  151.2590   56.3200 C.3   103  MET103      0.0427
     72  CG         6.4450  150.7010   57.1250 C.3   103  MET103      0.0599
     73  SD         7.2380  151.9710   58.1170 S.3   103  MET103     -0.1393
     74  CE         8.3490  152.6650   56.9040 C.3   103  MET103      0.0692
     75  N          3.7950  153.4880   55.4550 N.am  104  ASP104     -0.1957
     76  CA         3.0000  154.3180   54.5630 C.3   104  ASP104      0.1840
     77  C          2.8520  153.7290   53.1700 C.2   104  ASP104      0.2622
     78  O          1.7340  153.5020   52.7230 O.2   104  ASP104     -0.2715
     79  CB         3.5840  155.7280   54.5050 C.3   104  ASP104      0.1450
     80  CG         3.4440  156.4660   55.8340 C.2   104  ASP104      0.3671
     81  OD1        4.0540  156.0280   56.8320 O.co2 104  ASP104     -0.2456
     82  OD2        2.7150  157.4810   55.8890 O.co2 104  ASP104     -0.2456
     83  N          3.9610  153.4780   52.4790 N.am  105  ALA105     -0.1963
     84  CA         3.8870  152.8780   51.1400 C.3   105  ALA105      0.1728
     85  C          5.1090  152.0200   50.8240 C.2   105  ALA105      0.2616
     86  O          6.2260  152.3530   51.2090 O.2   105  ALA105     -0.2715
     87  CB         3.7130  153.9550   50.0760 C.3   105  ALA105      0.0334
     88  N          4.8900  150.9150   50.1180 N.am  106  ASN106     -0.1972
     89  CA         5.9800  150.0100   49.7710 C.3   106  ASN106      0.1688
     90  C          6.8240  150.5570   48.6280 C.2   106  ASN106      0.2292
     91  O          6.3060  151.2250   47.7360 O.2   106  ASN106     -0.2864
     92  CB         5.4390  148.6150   49.4040 C.3   106  ASN106      0.1181
     93  CG         4.6210  148.6070   48.1140 C.2   106  ASN106      0.2629
     94  OD1        4.9350  149.3190   47.1620 O.2   106  ASN106     -0.2716
     95  ND2        3.5810  147.7730   48.0750 N.am  106  ASN106     -0.0877
     96  N          8.1550  144.8680   46.0410 N.3   147  SER147     -0.1217
     97  CA         6.9870  144.4880   46.8190 C.3   147  SER147      0.1889
     98  C          7.3310  144.3000   48.2930 C.2   147  SER147      0.2288
     99  O          6.4560  144.3910   49.1570 O.2   147  SER147     -0.2866
    100  CB         6.3970  143.1580   46.2890 C.3   147  SER147      0.2089
    101  OG         6.3200  143.0910   44.8690 O.3   147  SER147     -0.2183
    102  N          9.3110  148.7550   52.6780 N.3   150  VAL150     -0.1245
    103  CA         8.3490  149.7770   53.0580 C.3   150  VAL150      0.1561
    104  C          8.9850  151.0750   53.5450 C.2   150  VAL150      0.2260
    105  O          9.8390  151.0740   54.4350 O.2   150  VAL150     -0.2867
    106  CB         7.3960  149.2480   54.1290 C.3   150  VAL150      0.0252
    107  CG1        6.3530  148.3560   53.4860 C.3   150  VAL150      0.0019
    108  CG2        8.1810  148.4860   55.1810 C.3   150  VAL150      0.0019
    109  N         10.7910  143.5740   54.4360 N.3   160  LEU160     -0.1245
    110  CA         9.7750  142.5950   54.7790 C.3   160  LEU160      0.1561
    111  C         10.0210  141.1130   54.5050 C.2   160  LEU160      0.2260
    112  O         11.1550  140.6390   54.3620 O.2   160  LEU160     -0.2867
    113  CB         8.4580  142.9820   54.1050 C.3   160  LEU160      0.0270
    114  CG         7.5680  143.8100   55.0090 C.3   160  LEU160      0.0019
    115  CD1        7.4050  143.0600   56.3130 C.3   160  LEU160      0.0001
    116  CD2        8.2010  145.1560   55.2670 C.3   160  LEU160      0.0001
@<TRIPOS>BOND
     1   101   100    1
     2    96    97    1
     3   100    97    1
     4    97    98    1
     5    94    93    2
     6    91    90    2
     7    95    93   am
     8    93    92    1
     9    98    99    2
    10    90    89    1
    11    92    89    1
    12     4     3    2
    13    89    88    1
    14    10    11    1
    15    10     9    1
    16    87    84    1
    17    88    85   am
    18    11    12    2
    19     3     9   am
    20     3     2    1
    21    85    84    1
    22    85    86    2
    23    84    83    1
    24     2     1    1
    25     2     5    1
    26    83    77   am
    27     8     6    1
    28   102   103    1
    29     5     6    1
    30     5     7    1
    31    78    77    2
    32   103   104    1
    33   103   106    1
    34    77    76    1
    35   107   106    1
    36   104   105    2
    37    16    15    2
    38    13    14    1
    39   113   110    1
    40   113   114    1
    41   106   108    1
    42   112   111    2
    43   109   110    1
    44   111   110    1
    45    79    76    1
    46    79    80    1
    47    76    75    1
    48    17    19    1
    49    17    14    1
    50    17    18    1
    51    15    14    1
    52    33    32    1
    53   114   116    1
    54   114   115    1
    55    32    31    1
    56    75    69   am
    57    80    82   ar
    58    80    81   ar
    59    69    70    2
    60    69    68    1
    61    71    72    1
    62    71    68    1
    63    31    30    1
    64    30    29    1
    65    74    73    1
    66    72    73    1
    67    68    67    1
    68    65    64    1
    69    29    26    1
    70    67    61   am
    71    26    27    1
    72    26    25    1
    73    64    66    1
    74    64    63    1
    75    27    28    2
    76    39    41    1
    77    39    38    1
    78    24    21    1
    79    61    60    1
    80    61    62    2
    81    21    22    1
    82    21    20    1
    83    63    60    1
    84    60    59    1
    85    38    40    1
    86    38    35    1
    87    49    48    1
    88    48    47    1
    89    34    35    1
    90    22    23    2
    91    53    52    2
    92    35    36    1
    93    47    46    1
    94    59    52   am
    95    52    51    1
    96    45    44    2
    97    36    37    2
    98    46    43    1
    99    44    43    1
   100    44    50   am
   101    55    56    1
   102    55    54    1
   103    57    56   ar
   104    51    50    1
   105    51    54    1
   106    42    43    1
   107    56    58   ar
