@<TRIPOS>MOLECULE
tmp/2g0bB00.pdb
 247 240 0 0 0
SMALL
GASTEIGER

@<TRIPOS>ATOM
      1  N         16.3870  188.2500   21.9900 N.3    26  TYR26      -0.1241
      2  CA        17.6010  189.0280   22.2200 C.3    26  TYR26       0.1605
      3  C         17.3420  190.1840   23.1880 C.2    26  TYR26       0.2264
      4  O         18.1490  190.4320   24.0840 O.2    26  TYR26      -0.2867
      5  CB        18.2010  189.5290   20.8910 C.3    26  TYR26       0.0534
      6  CG        19.0060  188.4780   20.1250 C.ar   26  TYR26      -0.0201
      7  CD1       18.7780  187.1050   20.3240 C.ar   26  TYR26      -0.0009
      8  CD2       19.9910  188.8520   19.2020 C.ar   26  TYR26      -0.0009
      9  CE1       19.4900  186.1380   19.6250 C.ar   26  TYR26       0.0417
     10  CE2       20.7320  187.8780   18.4910 C.ar   26  TYR26       0.0417
     11  CZ        20.4690  186.5240   18.7150 C.ar   26  TYR26       0.1957
     12  OH        21.1640  185.5450   18.0330 O.3    26  TYR26      -0.2866
     13  N         20.5950  191.5770   24.7450 N.3    31  TYR31      -0.1241
     14  CA        21.5120  191.5430   23.6230 C.3    31  TYR31       0.1605
     15  C         21.1620  192.6880   22.6830 C.2    31  TYR31       0.2264
     16  O         19.9940  193.0400   22.5310 O.2    31  TYR31      -0.2867
     17  CB        21.3870  190.2170   22.8650 C.3    31  TYR31       0.0534
     18  CG        21.7730  188.9530   23.6390 C.ar   31  TYR31      -0.0201
     19  CD1       21.2450  187.7100   23.2690 C.ar   31  TYR31      -0.0009
     20  CD2       22.6840  188.9910   24.7070 C.ar   31  TYR31      -0.0009
     21  CE1       21.5910  186.5330   23.9510 C.ar   31  TYR31       0.0417
     22  CE2       23.0350  187.8120   25.4020 C.ar   31  TYR31       0.0417
     23  CZ        22.4790  186.5860   25.0070 C.ar   31  TYR31       0.1957
     24  OH        22.8060  185.4190   25.6660 O.3    31  TYR31      -0.2866
     25  N         23.1650  190.5410   10.6020 N.3    37  PHE37      -0.1241
     26  CA        22.7280  189.1650   10.4000 C.3    37  PHE37       0.1605
     27  C         21.7640  189.0270    9.2160 C.2    37  PHE37       0.2264
     28  O         21.7290  187.9830    8.5600 O.2    37  PHE37      -0.2867
     29  CB        22.0710  188.6220   11.6670 C.3    37  PHE37       0.0534
     30  CG        23.0410  188.0720   12.6580 C.ar   37  PHE37      -0.0203
     31  CD1       23.1960  188.6730   13.8970 C.ar   37  PHE37      -0.0042
     32  CD2       23.8010  186.9440   12.3610 C.ar   37  PHE37      -0.0042
     33  CE1       24.0850  188.1650   14.8300 C.ar   37  PHE37      -0.0003
     34  CE2       24.6990  186.4330   13.2860 C.ar   37  PHE37      -0.0003
     35  CZ        24.8370  187.0490   14.5290 C.ar   37  PHE37      -0.0000
     36  N         15.8430  178.6170   13.3760 N.3    61  ILE61      -0.1245
     37  CA        17.3030  178.4720   13.3390 C.3    61  ILE61       0.1561
     38  C         17.8060  178.7310   11.9050 C.2    61  ILE61       0.2260
     39  O         17.1110  178.4300   10.9270 O.2    61  ILE61      -0.2867
     40  CB        17.7450  177.0580   13.8630 C.3    61  ILE61       0.0252
     41  CG1       19.1960  177.0820   14.3460 C.3    61  ILE61       0.0019
     42  CG2       17.5360  175.9900   12.8070 C.3    61  ILE61       0.0019
     43  CD1       19.5640  175.9480   15.2470 C.3    61  ILE61       0.0001
     44  N         28.3080  178.2660    9.6410 N.3    93  GLU93      -0.1231
     45  CA        27.9900  178.7340   10.9700 C.3    93  GLU93       0.1699
     46  C         26.4910  178.6320   11.1810 C.2    93  GLU93       0.2592
     47  O         25.7150  179.0040   10.3080 O.2    93  GLU93      -0.2718
     48  CB        28.4510  180.1750   11.1300 C.3    93  GLU93       0.0402
     49  CG        28.3420  180.7170   12.5550 C.3    93  GLU93       0.1161
     50  CD        28.7750  182.1810   12.6470 C.2    93  GLU93       0.3649
     51  OE1       28.4890  182.8360   13.6810 O.co2  93  GLU93      -0.2457
     52  OE2       29.4200  182.6770   11.6980 O.co2  93  GLU93      -0.2457
     53  N         26.0890  178.0830   12.3250 N.am   94  VAL94      -0.1966
     54  CA        24.6840  178.1010   12.7370 C.3    94  VAL94       0.1727
     55  C         24.4340  179.3560   13.5770 C.2    94  VAL94       0.2616
     56  O         25.1750  179.6370   14.5210 O.2    94  VAL94      -0.2715
     57  CB        24.3080  176.8610   13.5700 C.3    94  VAL94       0.0290
     58  CG1       22.8350  176.7510   13.6760 C.3    94  VAL94       0.0023
     59  CG2       24.8710  175.6140   12.9590 C.3    94  VAL94       0.0023
     60  N         23.4160  180.1290   13.2080 N.am   95  VAL95      -0.1963
     61  CA        23.1340  181.4130   13.8700 C.3    95  VAL95       0.1727
     62  C         21.6440  181.6050   14.1030 C.2    95  VAL95       0.2616
     63  O         20.8350  180.7690   13.6810 O.2    95  VAL95      -0.2715
     64  CB        23.6170  182.6060   13.0060 C.3    95  VAL95       0.0290
     65  CG1       25.1010  182.5630   12.7960 C.3    95  VAL95       0.0023
     66  CG2       22.8840  182.6350   11.6750 C.3    95  VAL95       0.0023
     67  N         21.2930  182.7190   14.7710 N.am   96  GLN96      -0.1963
     68  CA        19.9210  183.2440   14.8010 C.3    96  GLN96       0.1733
     69  C         18.9140  182.1780   15.2680 C.2    96  GLN96       0.2616
     70  O         17.8620  181.9740   14.6430 O.2    96  GLN96      -0.2715
     71  CB        19.5620  183.7930   13.4030 C.3    96  GLN96       0.0408
     72  CG        18.7440  185.0940   13.3570 C.3    96  GLN96       0.0908
     73  CD        19.5400  186.3600   13.6980 C.2    96  GLN96       0.2608
     74  OE1       20.6720  186.2940   14.1840 O.2    96  GLN96      -0.2717
     75  NE2       18.9220  187.5130   13.4770 N.am   96  GLN96      -0.0878
     76  N         19.2810  181.4750   16.3460 N.am   97  PHE97      -0.1974
     77  CA        18.4970  180.3760   16.9110 C.3    97  PHE97       0.1639
     78  C         17.6700  180.8880   18.0850 C.2    97  PHE97       0.2290
     79  O         18.2240  181.3000   19.1040 O.2    97  PHE97      -0.2864
     80  CB        19.4530  179.2620   17.3720 C.3    97  PHE97       0.0560
     81  CG        18.8310  178.2450   18.3140 C.ar   97  PHE97      -0.0200
     82  CD1       17.6810  177.5260   17.9520 C.ar   97  PHE97      -0.0042
     83  CD2       19.4350  177.9620   19.5360 C.ar   97  PHE97      -0.0042
     84  CE1       17.1370  176.5670   18.8060 C.ar   97  PHE97      -0.0003
     85  CE2       18.8930  176.9960   20.4030 C.ar   97  PHE97      -0.0003
     86  CZ        17.7440  176.3030   20.0380 C.ar   97  PHE97      -0.0000
     87  N         17.5730  171.0170   15.5740 N.3   121  PHE121     -0.1241
     88  CA        18.9560  170.5520   15.5380 C.3   121  PHE121      0.1605
     89  C         19.1250  169.4440   14.5160 C.2   121  PHE121      0.2264
     90  O         20.1710  169.3460   13.8670 O.2   121  PHE121     -0.2867
     91  CB        19.4090  170.0650   16.9190 C.3   121  PHE121      0.0534
     92  CG        19.6110  171.1770   17.9380 C.ar  121  PHE121     -0.0203
     93  CD1       19.7850  170.8660   19.2970 C.ar  121  PHE121     -0.0042
     94  CD2       19.6200  172.5300   17.5490 C.ar  121  PHE121     -0.0042
     95  CE1       19.9590  171.8810   20.2540 C.ar  121  PHE121     -0.0003
     96  CE2       19.7890  173.5460   18.4930 C.ar  121  PHE121     -0.0003
     97  CZ        19.9600  173.2230   19.8500 C.ar  121  PHE121     -0.0000
     98  N         19.2750  170.9080   10.9740 N.3   124  VAL124     -0.1231
     99  CA        20.6250  171.4200   10.7690 C.3   124  VAL124      0.1692
    100  C         21.6250  170.2810   10.4900 C.2   124  VAL124      0.2591
    101  O         22.3150  170.2940    9.4730 O.2   124  VAL124     -0.2718
    102  CB        21.0960  172.2490   12.0030 C.3   124  VAL124      0.0266
    103  CG1       22.5770  172.5480   11.9360 C.3   124  VAL124      0.0020
    104  CG2       20.3060  173.5220   12.1150 C.3   124  VAL124      0.0020
    105  N         21.6780  169.2930   11.3860 N.am  125  LEU125     -0.1980
    106  CA        22.6330  168.1920   11.2580 C.3   125  LEU125      0.1596
    107  C         22.4630  167.4420    9.9400 C.2   125  LEU125      0.2287
    108  O         23.4470  167.1760    9.2500 O.2   125  LEU125     -0.2864
    109  CB        22.5350  167.2260   12.4500 C.3   125  LEU125      0.0297
    110  CG        23.5100  166.0320   12.4160 C.3   125  LEU125      0.0022
    111  CD1       24.9540  166.5060   12.5070 C.3   125  LEU125      0.0001
    112  CD2       23.1980  165.0010   13.4940 C.3   125  LEU125      0.0001
    113  N         30.7670  172.5330   11.6090 N.3   136  LEU136     -0.1245
    114  CA        29.6180  173.3390   11.9430 C.3   136  LEU136      0.1561
    115  C         29.9990  174.2850   13.0740 C.2   136  LEU136      0.2260
    116  O         30.1670  173.8700   14.2160 O.2   136  LEU136     -0.2867
    117  CB        28.4680  172.4440   12.3550 C.3   136  LEU136      0.0270
    118  CG        27.0650  172.8350   11.9180 C.3   136  LEU136      0.0019
    119  CD1       27.0460  173.4980   10.5530 C.3   136  LEU136      0.0001
    120  CD2       26.2020  171.6130   11.9210 C.3   136  LEU136      0.0001
    121  N         29.9840  177.6310   15.6900 N.3   138  ILE138     -0.1231
    122  CA        29.0540  178.0910   16.6940 C.3   138  ILE138      0.1692
    123  C         29.7120  179.2060   17.5010 C.2   138  ILE138      0.2593
    124  O         30.8490  179.0580   17.9610 O.2   138  ILE138     -0.2718
    125  CB        28.6310  176.8490   17.6070 C.3   138  ILE138      0.0266
    126  CG1       27.2960  176.2910   17.1650 C.3   138  ILE138      0.0019
    127  CG2       28.5630  177.1850   19.0710 C.3   138  ILE138      0.0020
    128  CD1       26.4910  177.2480   16.4290 C.3   138  ILE138      0.0001
    129  N         29.0370  180.3500   17.6000 N.am  139  SER139     -0.1938
    130  CA        29.4670  181.3960   18.5250 C.3   139  SER139      0.2055
    131  C         28.3400  181.6480   19.5130 C.2   139  SER139      0.2643
    132  O         27.2860  182.1710   19.1540 O.2   139  SER139     -0.2714
    133  CB        29.9100  182.6760   17.7880 C.3   139  SER139      0.2130
    134  OG        28.8170  183.5300   17.5010 O.3   139  SER139     -0.2179
    135  N         28.5570  181.2210   20.7510 N.am  140  ILE140     -0.1963
    136  CA        27.5010  181.1800   21.7520 C.3   140  ILE140      0.1727
    137  C         27.8400  181.9780   22.9930 C.2   140  ILE140      0.2616
    138  O         28.9930  182.2990   23.2330 O.2   140  ILE140     -0.2715
    139  CB        27.2220  179.7190   22.1600 C.3   140  ILE140      0.0290
    140  CG1       28.5340  178.9500   22.3370 C.3   140  ILE140      0.0022
    141  CG2       26.3250  179.0530   21.1610 C.3   140  ILE140      0.0023
    142  CD1       28.5830  178.1420   23.5670 C.3   140  ILE140      0.0001
    143  N         26.8150  182.2860   23.7820 N.am  141  ASN141     -0.1972
    144  CA        27.0040  182.8800   25.0910 C.3   141  ASN141      0.1688
    145  C         27.5860  181.8390   26.0480 C.2   141  ASN141      0.2292
    146  O         27.1420  180.6950   26.0540 O.2   141  ASN141     -0.2864
    147  CB        25.6720  183.3960   25.6320 C.3   141  ASN141      0.1181
    148  CG        25.8460  184.3970   26.7560 C.2   141  ASN141      0.2629
    149  OD1       26.1930  184.0370   27.8800 O.2   141  ASN141     -0.2716
    150  ND2       25.6000  185.6580   26.4590 N.am  141  ASN141     -0.0877
    151  N         26.7350  172.9270   24.9600 N.3   148  TYR148     -0.1241
    152  CA        27.1930  172.6830   23.5940 C.3   148  TYR148      0.1605
    153  C         28.4160  171.7840   23.5110 C.2   148  TYR148      0.2264
    154  O         28.5960  171.0790   22.5300 O.2   148  TYR148     -0.2867
    155  CB        27.4020  174.0010   22.8330 C.3   148  TYR148      0.0534
    156  CG        26.1010  174.6280   22.4100 C.ar  148  TYR148     -0.0201
    157  CD1       25.5960  175.7460   23.0680 C.ar  148  TYR148     -0.0009
    158  CD2       25.3420  174.0710   21.3960 C.ar  148  TYR148     -0.0009
    159  CE1       24.3690  176.3080   22.7160 C.ar  148  TYR148      0.0417
    160  CE2       24.1140  174.6290   21.0250 C.ar  148  TYR148      0.0417
    161  CZ        23.6350  175.7510   21.6920 C.ar  148  TYR148      0.1957
    162  OH        22.4170  176.3060   21.3280 O.3   148  TYR148     -0.2866
    163  N         27.1390  168.4320   23.6140 N.3   151  LEU151     -0.1245
    164  CA        26.5890  168.1350   22.3080 C.3   151  LEU151      0.1561
    165  C         27.6850  167.8030   21.2970 C.2   151  LEU151      0.2260
    166  O         27.3910  167.3840   20.1830 O.2   151  LEU151     -0.2867
    167  CB        25.7400  169.3020   21.8100 C.3   151  LEU151      0.0270
    168  CG        24.4770  168.9640   21.0220 C.3   151  LEU151      0.0019
    169  CD1       23.3800  168.5480   21.9390 C.3   151  LEU151      0.0001
    170  CD2       24.0430  170.1490   20.1960 C.3   151  LEU151      0.0001
    171  N         30.5860  169.9550   20.5630 N.3   153  PHE153     -0.1241
    172  CA        31.2800  171.1160   20.0040 C.3   153  PHE153      0.1605
    173  C         32.5810  171.4190   20.7550 C.2   153  PHE153      0.2264
    174  O         32.5620  171.7600   21.9430 O.2   153  PHE153     -0.2867
    175  CB        30.3670  172.3430   20.0270 C.3   153  PHE153      0.0534
    176  CG        29.2820  172.3160   18.9900 C.ar  153  PHE153     -0.0203
    177  CD1       28.0950  171.6340   19.2190 C.ar  153  PHE153     -0.0042
    178  CD2       29.4370  172.9910   17.7870 C.ar  153  PHE153     -0.0042
    179  CE1       27.0860  171.6180   18.2530 C.ar  153  PHE153     -0.0003
    180  CE2       28.4280  172.9730   16.8240 C.ar  153  PHE153     -0.0003
    181  CZ        27.2580  172.2940   17.0600 C.ar  153  PHE153     -0.0000
    182  N         31.6920  190.0250   21.7430 N.3   162  TYR162     -0.1241
    183  CA        31.0360  190.0550   20.4420 C.3   162  TYR162      0.1605
    184  C         30.2610  191.3640   20.2990 C.2   162  TYR162      0.2264
    185  O         29.2150  191.5440   20.9180 O.2   162  TYR162     -0.2867
    186  CB        30.0910  188.8570   20.3150 C.3   162  TYR162      0.0534
    187  CG        29.7780  188.4080   18.9040 C.ar  162  TYR162     -0.0201
    188  CD1       29.1060  187.2140   18.6820 C.ar  162  TYR162     -0.0009
    189  CD2       30.1330  189.1790   17.7970 C.ar  162  TYR162     -0.0009
    190  CE1       28.8040  186.7910   17.4050 C.ar  162  TYR162      0.0417
    191  CE2       29.8380  188.7610   16.5080 C.ar  162  TYR162      0.0417
    192  CZ        29.1680  187.5730   16.3210 C.ar  162  TYR162      0.1957
    193  OH        28.8610  187.1520   15.0580 O.3   162  TYR162     -0.2866
    194  N         26.5140  191.7460   19.1520 N.3   165  VAL165     -0.1245
    195  CA        25.5110  191.3760   20.1390 C.3   165  VAL165      0.1561
    196  C         25.6840  192.1550   21.4750 C.2   165  VAL165      0.2260
    197  O         24.7360  192.2650   22.2750 O.2   165  VAL165     -0.2867
    198  CB        25.5310  189.8410   20.3530 C.3   165  VAL165      0.0252
    199  CG1       24.7950  189.4470   21.5710 C.3   165  VAL165      0.0019
    200  CG2       24.9260  189.1480   19.1580 C.3   165  VAL165      0.0019
    201  N         27.6840  191.2860   23.9410 N.3   167  ALA167     -0.1231
    202  CA        27.7120  190.2720   24.9870 C.3   167  ALA167      0.1679
    203  C         28.8870  189.3070   24.7320 C.2   167  ALA167      0.2434
    204  O         29.3950  189.2530   23.6130 O.2   167  ALA167     -0.2733
    205  CB        26.3890  189.5270   25.0150 C.3   167  ALA167      0.0304
    206  N         29.3390  188.5780   25.7660 N.am  168  PRO168     -0.2718
    207  CA        30.4570  187.6270   25.6280 C.3   168  PRO168      0.1535
    208  C         30.1870  186.4860   24.6460 C.2   168  PRO168      0.2598
    209  O         29.0360  186.1580   24.3920 O.2   168  PRO168     -0.2715
    210  CB        30.6000  187.0640   27.0370 C.3   168  PRO168      0.0310
    211  CG        30.0060  188.0820   27.9100 C.3   168  PRO168      0.0237
    212  CD        28.8630  188.6470   27.1590 C.3   168  PRO168      0.0939
    213  N         31.2500  185.8810   24.1190 N.am  169  ALA169     -0.1978
    214  CA        31.1190  184.8180   23.1150 C.3   169  ALA169      0.1597
    215  C         32.2750  183.8300   23.1340 C.2   169  ALA169      0.2287
    216  O         33.4290  184.2110   23.3220 O.2   169  ALA169     -0.2864
    217  CB        30.9630  185.4130   21.7150 C.3   169  ALA169      0.0319
    218  N         31.9960  171.7300   15.3990 N.3   174  LEU174     -0.1245
    219  CA        31.7200  170.3060   15.4440 C.3   174  LEU174      0.1561
    220  C         32.1580  169.6620   14.1420 C.2   174  LEU174      0.2260
    221  O         31.7050  170.0650   13.0700 O.2   174  LEU174     -0.2867
    222  CB        30.2300  170.0890   15.6510 C.3   174  LEU174      0.0270
    223  CG        29.6290  168.6990   15.4800 C.3   174  LEU174      0.0019
    224  CD1       29.6160  167.9460   16.8100 C.3   174  LEU174      0.0001
    225  CD2       28.2300  168.8150   14.9240 C.3   174  LEU174      0.0001
    226  N         30.2250  163.1620   13.8620 N.3   179  TRP179     -0.1241
    227  CA        29.4490  163.8860   14.8690 C.3   179  TRP179      0.1605
    228  C         29.0960  163.0330   16.0900 C.2   179  TRP179      0.2264
    229  O         29.0470  163.5440   17.2130 O.2   179  TRP179     -0.2867
    230  CB        28.1760  164.5040   14.2550 C.3   179  TRP179      0.0550
    231  CG        27.1610  163.4920   13.8340 C.ar  179  TRP179      0.0003
    232  CD1       27.1280  162.7990   12.6550 C.ar  179  TRP179      0.0946
    233  CD2       26.0570  163.0220   14.6040 C.ar  179  TRP179      0.0152
    234  NE1       26.0630  161.9320   12.6440 N.ar  179  TRP179     -0.2442
    235  CE2       25.3880  162.0470   13.8310 C.ar  179  TRP179      0.0810
    236  CE3       25.5560  163.3250   15.8780 C.ar  179  TRP179      0.0012
    237  CZ2       24.2570  161.3800   14.2850 C.ar  179  TRP179      0.0191
    238  CZ3       24.4190  162.6630   16.3250 C.ar  179  TRP179      0.0001
    239  CH2       23.7820  161.7070   15.5280 C.ar  179  TRP179      0.0015
    240  N         25.9150  162.1440   23.5640 N.3   185  LEU185     -0.1245
    241  CA        24.5860  161.6400   23.2080 C.3   185  LEU185      0.1561
    242  C         24.6370  160.2140   22.6670 C.2   185  LEU185      0.2260
    243  O         23.7270  159.4170   22.9190 O.2   185  LEU185     -0.2867
    244  CB        23.9110  162.5430   22.1850 C.3   185  LEU185      0.0270
    245  CG        23.2410  163.8250   22.6930 C.3   185  LEU185      0.0019
    246  CD1       22.5470  164.5270   21.5280 C.3   185  LEU185      0.0001
    247  CD2       22.2530  163.5480   23.8370 C.3   185  LEU185      0.0001
@<TRIPOS>BOND
     1    28    27    2
     2    27    26    1
     3   108   107    2
     4   101   100    2
     5    44    45    1
     6   107   106    1
     7    47    46    2
     8    26    25    1
     9    26    29    1
    10   100    99    1
    11   100   105   am
    12   119   118    1
    13    99    98    1
    14    99   102    1
    15    39    38    2
    16    45    48    1
    17    45    46    1
    18    48    49    1
    19    46    53   am
    20   106   105    1
    21   106   109    1
    22   113   114    1
    23    29    30    1
    24    66    64    1
    25    52    50   ar
    26    38    37    1
    27   118   120    1
    28   118   117    1
    29   103   102    1
    30   114   117    1
    31   114   115    1
    32   102   104    1
    33    53    54    1
    34    32    30   ar
    35    32    34   ar
    36   110   109    1
    37   110   111    1
    38   110   112    1
    39    49    50    1
    40   234   232   ar
    41   234   235   ar
    42    50    51   ar
    43   232   231   ar
    44    30    31   ar
    45    54    57    1
    46    54    55    1
    47    65    64    1
    48    42    40    1
    49    59    57    1
    50    64    61    1
    51   221   220    2
    52   115   116    2
    53    60    55   am
    54    60    61    1
    55    34    35   ar
    56    37    36    1
    57    37    40    1
    58    72    71    1
    59    72    73    1
    60    71    68    1
    61    75    73   am
    62    57    58    1
    63    55    56    2
    64    63    62    2
    65    73    74    2
    66   235   237   ar
    67   235   233   ar
    68   231   230    1
    69   231   233   ar
    70   226   227    1
    71    40    41    1
    72    90    89    2
    73    61    62    1
    74    31    33   ar
    75    62    67   am
    76   220   219    1
    77   230   227    1
    78   237   239   ar
    79    41    43    1
    80    89    88    1
    81    35    33   ar
    82   233   236   ar
    83    70    69    2
    84    67    68    1
    85    68    69    1
    86   227   228    1
    87   225   223    1
    88   193   192    1
    89    69    76   am
    90   218   219    1
    91   219   222    1
    92   223   222    1
    93   223   224    1
    94   239   238   ar
    95    88    87    1
    96    88    91    1
    97   121   122    1
    98   236   238   ar
    99   228   229    2
   100   192   191   ar
   101   192   190   ar
   102    76    77    1
   103   128   126    1
   104   191   189   ar
   105   122   123    1
   106   122   125    1
   107   180   181   ar
   108   180   178   ar
   109    77    80    1
   110    77    78    1
   111    91    92    1
   112   181   179   ar
   113   126   125    1
   114    80    81    1
   115   190   188   ar
   116   134   133    1
   117   123   129   am
   118   123   124    2
   119    94    92   ar
   120    94    96   ar
   121   129   130    1
   122   125   127    1
   123   178   176   ar
   124   133   130    1
   125   189   187   ar
   126    92    93   ar
   127    82    81   ar
   128    82    84   ar
   129    12    11    1
   130    78    79    2
   131   179   177   ar
   132    81    83   ar
   133    10    11   ar
   134    10     8   ar
   135    96    97   ar
   136   130   131    1
   137   188   187   ar
   138    11     9   ar
   139    84    86   ar
   140   187   186    1
   141   176   177   ar
   142   176   175    1
   143   194   195    1
   144   132   131    2
   145   200   198    1
   146     8     6   ar
   147    93    95   ar
   148   131   135   am
   149    83    85   ar
   150     9     7   ar
   151    97    95   ar
   152   172   175    1
   153   172   171    1
   154   172   173    1
   155    86    85   ar
   156     6     7   ar
   157     6     5    1
   158   195   198    1
   159   195   196    1
   160   166   165    2
   161   170   168    1
   162   184   183    1
   163   184   185    2
   164   186   183    1
   165   198   199    1
   166   183   182    1
   167   135   136    1
   168   173   174    2
   169     5     2    1
   170   168   167    1
   171   168   169    1
   172   160   158   ar
   173   160   161   ar
   174   141   139    1
   175   165   164    1
   176   162   161    1
   177   158   156   ar
   178   196   197    2
   179   246   245    1
   180   161   159   ar
   181   217   214    1
   182   136   139    1
   183   136   137    1
   184   167   164    1
   185     1     2    1
   186   139   140    1
   187   244   245    1
   188   244   241    1
   189     2     3    1
   190   164   163    1
   191   140   142    1
   192   156   155    1
   193   156   157   ar
   194   154   153    2
   195    16    15    2
   196   242   243    2
   197   242   241    1
   198    15    14    1
   199   245   247    1
   200   159   157   ar
   201   155   152    1
   202    17    14    1
   203    17    18    1
   204   137   138    2
   205   137   143   am
   206   214   215    1
   207   214   213    1
   208   215   216    2
   209     3     4    2
   210   241   240    1
   211    19    18   ar
   212    19    21   ar
   213   153   152    1
   214   152   151    1
   215   204   203    2
   216    14    13    1
   217    18    20   ar
   218   143   144    1
   219   201   202    1
   220    21    23   ar
   221   213   208   am
   222   209   208    2
   223   208   207    1
   224    20    22   ar
   225   203   202    1
   226   203   206   am
   227   202   205    1
   228    23    22   ar
   229    23    24    1
   230   144   147    1
   231   144   145    1
   232   207   206    1
   233   207   210    1
   234   147   148    1
   235   206   212    1
   236   145   146    2
   237   150   148   am
   238   148   149    2
   239   210   211    1
   240   212   211    1
