@<TRIPOS>MOLECULE
tmp/2g0eC00.pdb
 182 175 0 0 0
SMALL
GASTEIGER

@<TRIPOS>ATOM
      1  N        -61.2860  -50.8740   15.2140 N.3    50  LEU50      -0.1245
      2  CA       -61.7020  -49.4770   15.2500 C.3    50  LEU50       0.1561
      3  C        -60.5330  -48.5170   14.9710 C.2    50  LEU50       0.2260
      4  O        -60.6940  -47.4890   14.2870 O.2    50  LEU50      -0.2867
      5  CB       -62.3450  -49.1770   16.6060 C.3    50  LEU50       0.0270
      6  CG       -63.7940  -49.6660   16.6780 C.3    50  LEU50       0.0019
      7  CD1      -64.3200  -49.5350   18.0850 C.3    50  LEU50       0.0001
      8  CD2      -64.6530  -48.8510   15.6980 C.3    50  LEU50       0.0001
      9  N        -59.6770  -48.6570   11.4120 N.3    53  LEU53      -0.1245
     10  CA       -60.6970  -47.8170   10.8030 C.3    53  LEU53       0.1561
     11  C        -60.4260  -46.3320   10.9960 C.2    53  LEU53       0.2260
     12  O        -60.6520  -45.5390   10.0880 O.2    53  LEU53      -0.2867
     13  CB       -62.0770  -48.2030   11.3270 C.3    53  LEU53       0.0270
     14  CG       -62.6070  -49.5230   10.7520 C.3    53  LEU53       0.0019
     15  CD1      -64.0800  -49.6740   11.0700 C.3    53  LEU53       0.0001
     16  CD2      -62.4180  -49.5410    9.2440 C.3    53  LEU53       0.0001
     17  N        -57.6180  -45.5200    8.6320 N.3    56  GLU56      -0.1245
     18  CA       -58.1410  -45.4930    7.2660 C.3    56  GLU56       0.1567
     19  C        -58.8560  -44.1740    7.0680 C.2    56  GLU56       0.2260
     20  O        -58.8420  -43.6190    5.9750 O.2    56  GLU56      -0.2867
     21  CB       -59.1300  -46.6380    6.9990 C.3    56  GLU56       0.0388
     22  CG       -58.5220  -48.0430    6.8660 C.3    56  GLU56       0.1160
     23  CD       -57.2750  -48.1100    5.9560 C.2    56  GLU56       0.3649
     24  OE1      -57.3440  -47.8380    4.7260 O.co2  56  GLU56      -0.2457
     25  OE2      -56.2030  -48.4530    6.5030 O.co2  56  GLU56      -0.2457
     26  N        -56.2910  -41.2510    6.4920 N.3    59  LYS59      -0.1231
     27  CA       -55.8030  -41.3920    5.1340 C.3    59  LYS59       0.1693
     28  C        -56.8600  -40.9020    4.1790 C.2    59  LYS59       0.2592
     29  O        -56.5460  -40.1760    3.2480 O.2    59  LYS59      -0.2718
     30  CB       -55.4440  -42.8430    4.8260 C.3    59  LYS59       0.0285
     31  CG       -54.3350  -43.3780    5.7100 C.3    59  LYS59       0.0035
     32  CD       -53.8710  -44.7650    5.2800 C.3    59  LYS59       0.0206
     33  CE       -52.6900  -45.2430    6.1390 C.3    59  LYS59       0.1093
     34  NZ       -52.2790  -46.6460    5.8590 N.3    59  LYS59      -0.1314
     35  N        -58.1200  -41.2710    4.4050 N.am   60  TRP60      -0.1976
     36  CA       -59.1720  -40.8090    3.5010 C.3    60  TRP60       0.1640
     37  C        -59.1740  -39.2930    3.4800 C.2    60  TRP60       0.2290
     38  O        -59.3250  -38.6870    2.4260 O.2    60  TRP60      -0.2864
     39  CB       -60.5550  -41.3360    3.9190 C.3    60  TRP60       0.0576
     40  CG       -61.7220  -40.6550    3.2110 C.ar   60  TRP60       0.0006
     41  CD1      -62.5540  -39.7010    3.7330 C.ar   60  TRP60       0.0946
     42  CD2      -62.1220  -40.8270    1.8480 C.ar   60  TRP60       0.0152
     43  NE1      -63.4420  -39.2640    2.7810 N.ar   60  TRP60      -0.2442
     44  CE2      -63.2020  -39.9360    1.6130 C.ar   60  TRP60       0.0810
     45  CE3      -61.6750  -41.6410    0.8000 C.ar   60  TRP60       0.0012
     46  CZ2      -63.8410  -39.8390    0.3730 C.ar   60  TRP60       0.0191
     47  CZ3      -62.3090  -41.5430   -0.4360 C.ar   60  TRP60       0.0001
     48  CH2      -63.3810  -40.6460   -0.6370 C.ar   60  TRP60       0.0015
     49  N        -56.1840  -37.8160    1.7150 N.3    63  GLN63      -0.1245
     50  CA       -56.4650  -38.0340    0.3020 C.3    63  GLN63       0.1566
     51  C        -57.4720  -36.9840   -0.2140 C.2    63  GLN63       0.2260
     52  O        -57.2280  -36.3300   -1.2280 O.2    63  GLN63      -0.2867
     53  CB       -57.0000  -39.4650    0.0940 C.3    63  GLN63       0.0367
     54  CG       -55.9230  -40.5830    0.1030 C.3    63  GLN63       0.0905
     55  CD       -56.4720  -42.0010    0.4530 C.2    63  GLN63       0.2608
     56  OE1      -57.4390  -42.4910   -0.1490 O.2    63  GLN63      -0.2717
     57  NE2      -55.8350  -42.6560    1.4300 N.am   63  GLN63      -0.0878
     58  N        -64.3220  -45.1580   -5.3350 N.3    88  THR88      -0.1203
     59  CA       -63.3010  -45.7360   -4.4730 C.3    88  THR88       0.1994
     60  C        -63.7600  -46.9180   -3.6310 C.2    88  THR88       0.2617
     61  O        -63.0290  -47.8730   -3.4430 O.2    88  THR88      -0.2717
     62  CB       -62.6950  -44.7080   -3.5110 C.3    88  THR88       0.1784
     63  OG1      -63.6470  -44.4000   -2.4950 O.3    88  THR88      -0.2211
     64  CG2      -62.2640  -43.4580   -4.2450 C.3    88  THR88       0.0376
     65  N        -64.9710  -46.8790   -3.1210 N.am   89  GLU89      -0.1979
     66  CA       -65.3930  -47.9890   -2.2910 C.3    89  GLU89       0.1602
     67  C        -65.6030  -49.2650   -3.1010 C.2    89  GLU89       0.2287
     68  O        -65.5370  -50.3550   -2.5510 O.2    89  GLU89      -0.2864
     69  CB       -66.6640  -47.6140   -1.5320 C.3    89  GLU89       0.0415
     70  CG       -67.9160  -48.1520   -2.1560 C.3    89  GLU89       0.1163
     71  CD       -68.2790  -49.5340   -1.6420 C.2    89  GLU89       0.3649
     72  OE1      -68.7120  -50.3790   -2.4680 O.co2  89  GLU89      -0.2457
     73  OE2      -68.1380  -49.7510   -0.4110 O.co2  89  GLU89      -0.2457
     74  N        -63.7070  -50.7270   -5.0770 N.3    91  TYR91      -0.1227
     75  CA       -62.5220  -51.5650   -5.0730 C.3    91  TYR91       0.1736
     76  C        -61.7090  -51.3780   -3.8090 C.2    91  TYR91       0.2595
     77  O        -60.4850  -51.3840   -3.8310 O.2    91  TYR91      -0.2718
     78  CB       -61.6820  -51.2780   -6.3150 C.3    91  TYR91       0.0548
     79  CG       -61.1950  -49.8730   -6.4220 C.ar   91  TYR91      -0.0200
     80  CD1      -59.9940  -49.4890   -5.8470 C.ar   91  TYR91      -0.0009
     81  CD2      -61.9210  -48.9240   -7.1190 C.ar   91  TYR91      -0.0009
     82  CE1      -59.5260  -48.1900   -5.9710 C.ar   91  TYR91       0.0417
     83  CE2      -61.4600  -47.6210   -7.2480 C.ar   91  TYR91       0.0417
     84  CZ       -60.2650  -47.2700   -6.6730 C.ar   91  TYR91       0.1957
     85  OH       -59.7930  -46.0040   -6.8180 O.3    91  TYR91      -0.2866
     86  N        -62.4180  -51.2160   -2.7010 N.am   92  TYR92      -0.1976
     87  CA       -61.7910  -51.0450   -1.4020 C.3    92  TYR92       0.1639
     88  C        -61.8700  -52.4110   -0.7290 C.2    92  TYR92       0.2290
     89  O        -62.9460  -52.8540   -0.3380 O.2    92  TYR92      -0.2864
     90  CB       -62.5640  -50.0150   -0.5880 C.3    92  TYR92       0.0560
     91  CG       -61.9420  -49.7070    0.7500 C.ar   92  TYR92      -0.0198
     92  CD1      -62.6550  -49.9030    1.9360 C.ar   92  TYR92      -0.0009
     93  CD2      -60.6550  -49.1610    0.8340 C.ar   92  TYR92      -0.0009
     94  CE1      -62.1010  -49.5560    3.1640 C.ar   92  TYR92       0.0417
     95  CE2      -60.1010  -48.8080    2.0560 C.ar   92  TYR92       0.0417
     96  CZ       -60.8260  -49.0040    3.2100 C.ar   92  TYR92       0.1957
     97  OH       -60.2920  -48.6230    4.4100 O.3    92  TYR92      -0.2866
     98  N        -63.4790  -53.1630    2.8520 N.3    95  GLN95      -0.1245
     99  CA       -64.9320  -53.0580    2.9070 C.3    95  GLN95       0.1566
    100  C        -65.6750  -54.2900    3.3990 C.2    95  GLN95       0.2260
    101  O        -66.6150  -54.1810    4.1760 O.2    95  GLN95      -0.2867
    102  CB       -65.4860  -52.6600    1.5500 C.3    95  GLN95       0.0367
    103  CG       -66.8890  -52.1330    1.6190 C.3    95  GLN95       0.0905
    104  CD       -67.0160  -51.0110    2.6420 C.2    95  GLN95       0.2608
    105  OE1      -66.2040  -50.0780    2.6790 O.2    95  GLN95      -0.2717
    106  NE2      -68.0460  -51.0940    3.4780 N.am   95  GLN95      -0.0878
    107  N        -65.4190  -54.6060    6.9980 N.3    98  ILE98      -0.1245
    108  CA       -66.1580  -53.5160    7.6270 C.3    98  ILE98       0.1561
    109  C        -67.6250  -53.9050    7.7190 C.2    98  ILE98       0.2260
    110  O        -68.2320  -53.7520    8.7730 O.2    98  ILE98      -0.2867
    111  CB       -66.0020  -52.1930    6.8290 C.3    98  ILE98       0.0252
    112  CG1      -64.5830  -51.6580    7.0060 C.3    98  ILE98       0.0019
    113  CG2      -67.0130  -51.1410    7.3000 C.3    98  ILE98       0.0019
    114  CD1      -64.2570  -50.5350    6.0650 C.3    98  ILE98       0.0001
    115  N        -67.9290  -56.5660   10.2880 N.3   101  PHE101     -0.1227
    116  CA       -67.7510  -55.9900   11.6230 C.3   101  PHE101      0.1736
    117  C        -68.9730  -55.2100   12.0720 C.2   101  PHE101      0.2595
    118  O        -69.4780  -55.4020   13.1740 O.2   101  PHE101     -0.2718
    119  CB       -66.5350  -55.0610   11.6240 C.3   101  PHE101      0.0547
    120  CG       -66.3280  -54.3300   12.9150 C.ar  101  PHE101     -0.0202
    121  CD1      -66.5680  -52.9620   12.9970 C.ar  101  PHE101     -0.0042
    122  CD2      -65.8780  -55.0050   14.0480 C.ar  101  PHE101     -0.0042
    123  CE1      -66.3640  -52.2820   14.1810 C.ar  101  PHE101     -0.0003
    124  CE2      -65.6710  -54.3230   15.2450 C.ar  101  PHE101     -0.0003
    125  CZ       -65.9130  -52.9650   15.3090 C.ar  101  PHE101     -0.0000
    126  N        -69.4200  -54.3190   11.1980 N.am  102  TYR102     -0.1976
    127  CA       -70.5680  -53.4500   11.4320 C.3   102  TYR102      0.1639
    128  C        -71.8520  -54.2310   11.7350 C.2   102  TYR102      0.2290
    129  O        -72.5890  -53.8810   12.6550 O.2   102  TYR102     -0.2864
    130  CB       -70.7740  -52.5680   10.1990 C.3   102  TYR102      0.0560
    131  CG       -71.8740  -51.5390   10.2980 C.ar  102  TYR102     -0.0198
    132  CD1      -71.6360  -50.2970   10.8770 C.ar  102  TYR102     -0.0009
    133  CD2      -73.1490  -51.7890    9.7710 C.ar  102  TYR102     -0.0009
    134  CE1      -72.6340  -49.3150   10.9290 C.ar  102  TYR102      0.0417
    135  CE2      -74.1630  -50.8130    9.8180 C.ar  102  TYR102      0.0417
    136  CZ       -73.8890  -49.5770   10.3980 C.ar  102  TYR102      0.1957
    137  OH       -74.8480  -48.5870   10.4390 O.3   102  TYR102     -0.2866
    138  N        -67.4010  -45.9160   17.6620 N.3   115  MET115     -0.1245
    139  CA       -68.0830  -46.2100   16.4160 C.3   115  MET115      0.1570
    140  C        -68.7560  -44.9980   15.8130 C.2   115  MET115      0.2261
    141  O        -69.0570  -44.9850   14.6210 O.2   115  MET115     -0.2867
    142  CB       -69.1290  -47.2910   16.6320 C.3   115  MET115      0.0387
    143  CG       -69.8240  -47.7090   15.3610 C.3   115  MET115      0.0595
    144  SD       -68.6630  -48.4490   14.2210 S.3   115  MET115     -0.1393
    145  CE       -68.3960  -50.0180   15.0320 C.3   115  MET115      0.0692
    146  N        -66.1830  -41.7760   15.0020 N.3   118  LEU118     -0.1231
    147  CA       -65.7050  -42.1050   13.6720 C.3   118  LEU118      0.1693
    148  C        -66.6090  -41.5940   12.5730 C.2   118  LEU118      0.2591
    149  O        -66.1700  -40.8910   11.6690 O.2   118  LEU118     -0.2718
    150  CB       -65.6030  -43.6120   13.5200 C.3   118  LEU118      0.0284
    151  CG       -64.6250  -44.1200   12.4690 C.3   118  LEU118      0.0019
    152  CD1      -64.4510  -43.1330   11.3320 C.3   118  LEU118      0.0001
    153  CD2      -63.3040  -44.3650   13.1370 C.3   118  LEU118      0.0001
    154  N        -67.8730  -41.9890   12.6300 N.am  119  GLU119     -0.1979
    155  CA       -68.8140  -41.5640   11.6160 C.3   119  GLU119      0.1602
    156  C        -68.8930  -40.0490   11.5760 C.2   119  GLU119      0.2287
    157  O        -69.0580  -39.4530   10.5060 O.2   119  GLU119     -0.2864
    158  CB       -70.1830  -42.1950   11.8720 C.3   119  GLU119      0.0415
    159  CG       -70.1450  -43.7090   11.7070 C.3   119  GLU119      0.1163
    160  CD       -71.5190  -44.3570   11.7300 C.2   119  GLU119      0.3649
    161  OE1      -72.3940  -43.9210   10.9430 O.co2 119  GLU119     -0.2457
    162  OE2      -71.7170  -45.3110   12.5230 O.co2 119  GLU119     -0.2457
    163  N        -66.5660  -38.5350    9.2080 N.3   122  TYR122     -0.1241
    164  CA       -66.9790  -38.6390    7.8170 C.3   122  TYR122      0.1605
    165  C        -67.9500  -37.5430    7.4730 C.2   122  TYR122      0.2264
    166  O        -67.9300  -36.9940    6.3760 O.2   122  TYR122     -0.2867
    167  CB       -67.5970  -40.0100    7.5570 C.3   122  TYR122      0.0534
    168  CG       -66.5270  -41.0650    7.4140 C.ar  122  TYR122     -0.0201
    169  CD1      -66.4350  -42.1410    8.3070 C.ar  122  TYR122     -0.0009
    170  CD2      -65.5660  -40.9550    6.4060 C.ar  122  TYR122     -0.0009
    171  CE1      -65.4060  -43.0700    8.2000 C.ar  122  TYR122      0.0417
    172  CE2      -64.5390  -41.8740    6.2860 C.ar  122  TYR122      0.0417
    173  CZ       -64.4560  -42.9260    7.1840 C.ar  122  TYR122      0.1957
    174  OH       -63.3900  -43.7990    7.0650 O.3   122  TYR122     -0.2866
    175  N        -74.1040  -42.5460    1.4340 N.3   156  ASN156     -0.1240
    176  CA       -73.6770  -43.8560    1.8760 C.3   156  ASN156      0.1653
    177  C        -74.6570  -44.9470    1.4340 C.2   156  ASN156      0.2266
    178  O        -74.2610  -46.0690    1.1210 O.2   156  ASN156     -0.2867
    179  CB       -73.5870  -43.8800    3.3890 C.3   156  ASN156      0.1155
    180  CG       -72.8170  -45.0610    3.8940 C.2   156  ASN156      0.2627
    181  OD1      -72.9840  -46.1950    3.4250 O.2   156  ASN156     -0.2716
    182  ND2      -71.9570  -44.8110    4.8720 N.am  156  ASN156     -0.0877
@<TRIPOS>BOND
     1    83    81   ar
     2    83    84   ar
     3    81    79   ar
     4    85    84    1
     5    84    82   ar
     6    79    78    1
     7    79    80   ar
     8    78    75    1
     9    82    80   ar
    10    58    59    1
    11    74    75    1
    12    75    76    1
    13    59    60    1
    14    59    62    1
    15    64    62    1
    16    77    76    2
    17    76    86   am
    18    60    61    2
    19    60    65   am
    20    62    63    1
    21    65    66    1
    22    67    68    2
    23    67    66    1
    24    86    87    1
    25    72    71   ar
    26    66    69    1
    27    70    71    1
    28    70    69    1
    29    71    73   ar
    30    87    88    1
    31    87    90    1
    32    52    51    2
    33    88    89    2
    34    48    47   ar
    35    48    46   ar
    36    90    91    1
    37    47    45   ar
    38    51    50    1
    39    56    55    2
    40    53    54    1
    41    53    50    1
    42    54    55    1
    43    50    49    1
    44    46    44   ar
    45    55    57   am
    46    91    93   ar
    47    91    92   ar
    48    45    42   ar
    49    93    95   ar
    50   178   177    2
    51   175   176    1
    52   177   176    1
    53   102   103    1
    54   102    99    1
    55    44    42   ar
    56    44    43   ar
    57   103   104    1
    58    42    40   ar
    59   176   179    1
    60    92    94   ar
    61    95    96   ar
    62    38    37    2
    63   104   105    2
    64   104   106   am
    65    43    41   ar
    66    98    99    1
    67    99   100    1
    68    94    96   ar
    69    96    97    1
    70    40    41   ar
    71    40    39    1
    72    29    28    2
    73   179   180    1
    74   100   101    2
    75   181   180    2
    76    37    36    1
    77    36    39    1
    78    36    35    1
    79   180   182   am
    80    28    35   am
    81    28    27    1
    82    24    23   ar
    83    30    27    1
    84    30    31    1
    85    27    26    1
    86    32    31    1
    87    32    33    1
    88    34    33    1
    89    23    25   ar
    90    23    22    1
    91    20    19    2
    92   114   112    1
    93   172   170   ar
    94   172   173   ar
    95   166   165    2
    96   170   168   ar
    97   111   112    1
    98   111   113    1
    99   111   108    1
   100    22    21    1
   101   107   108    1
   102    21    18    1
   103   174   173    1
   104    19    18    1
   105   173   171   ar
   106    18    17    1
   107   168   167    1
   108   168   169   ar
   109   165   164    1
   110   167   164    1
   111   108   109    1
   112   109   110    2
   113   164   163    1
   114   171   169   ar
   115    16    14    1
   116   133   135   ar
   117   133   131   ar
   118   135   136   ar
   119    12    11    2
   120   130   131    1
   121   130   127    1
   122   115   116    1
   123   131   132   ar
   124   136   137    1
   125   136   134   ar
   126   157   156    2
   127    14    15    1
   128    14    13    1
   129    10    11    1
   130    10    13    1
   131    10     9    1
   132   132   134   ar
   133   161   160   ar
   134   126   127    1
   135   126   117   am
   136   152   151    1
   137   127   128    1
   138   156   155    1
   139   155   158    1
   140   155   154    1
   141   116   119    1
   142   116   117    1
   143   119   120    1
   144   149   148    2
   145   159   160    1
   146   159   158    1
   147   160   162   ar
   148   128   129    2
   149   117   118    2
   150   151   153    1
   151   151   150    1
   152   148   154   am
   153   148   147    1
   154   120   121   ar
   155   120   122   ar
   156   121   123   ar
   157   150   147    1
   158   147   146    1
   159   122   124   ar
   160   123   125   ar
   161   144   145    1
   162   144   143    1
   163     4     3    2
   164   141   140    2
   165     3     2    1
   166     1     2    1
   167   124   125   ar
   168     2     5    1
   169   143   142    1
   170     8     6    1
   171   140   139    1
   172   139   142    1
   173   139   138    1
   174     5     6    1
   175     6     7    1
