@<TRIPOS>MOLECULE
tmp/2g0gA00.pdb
 215 202 0 0 0
SMALL
GASTEIGER

@<TRIPOS>ATOM
      1  N         12.7940  -12.7430   47.5990 N.3    72  ALA72      -0.1245
      2  CA        13.3460  -12.4700   46.2750 C.3    72  ALA72       0.1562
      3  C         12.4570  -12.9670   45.1380 C.2    72  ALA72       0.2260
      4  O         12.2490  -12.3080   44.1160 O.2    72  ALA72      -0.2867
      5  CB        14.7480  -13.0490   46.1580 C.3    72  ALA72       0.0290
      6  N          8.9860  -10.9190   44.8480 N.3    75  ILE75      -0.1231
      7  CA         9.1310   -9.7230   44.0240 C.3    75  ILE75       0.1692
      8  C          9.0840  -10.1650   42.5620 C.2    75  ILE75       0.2592
      9  O          8.4160   -9.5490   41.7310 O.2    75  ILE75      -0.2718
     10  CB        10.4610   -8.9550   44.2340 C.3    75  ILE75       0.0266
     11  CG1       10.8260   -8.7690   45.7110 C.3    75  ILE75       0.0019
     12  CG2       10.4250   -7.6120   43.5070 C.3    75  ILE75       0.0020
     13  CD1        9.8550   -7.9290   46.5030 C.3    75  ILE75       0.0001
     14  N          9.8050  -11.2400   42.2580 N.am   76  PHE76      -0.1976
     15  CA         9.8650  -11.8560   40.9380 C.3    76  PHE76       0.1639
     16  C          8.4570  -12.1930   40.4580 C.2    76  PHE76       0.2290
     17  O          8.1160  -11.9350   39.3100 O.2    76  PHE76      -0.2864
     18  CB        10.7980  -13.0680   41.0190 C.3    76  PHE76       0.0560
     19  CG        10.9430  -13.8530   39.7490 C.ar   76  PHE76      -0.0200
     20  CD1       11.7880  -13.4110   38.7450 C.ar   76  PHE76      -0.0042
     21  CD2       10.2880  -15.0650   39.5920 C.ar   76  PHE76      -0.0042
     22  CE1       11.9540  -14.1530   37.5890 C.ar   76  PHE76      -0.0003
     23  CE2       10.4380  -15.8090   38.4380 C.ar   76  PHE76      -0.0003
     24  CZ        11.2800  -15.3530   37.4430 C.ar   76  PHE76      -0.0000
     25  N          6.6070   -8.5050   39.7090 N.3    79  CYS79      -0.1221
     26  CA         6.9840   -7.8670   38.4510 C.3    79  CYS79       0.1808
     27  C          6.4600   -8.5680   37.2000 C.2    79  CYS79       0.2601
     28  O          5.9070   -7.9520   36.2780 O.2    79  CYS79      -0.2717
     29  CB         8.5060   -7.8170   38.3420 C.3    79  CYS79       0.0970
     30  SG         9.2100   -7.0130   39.7870 S.3    79  CYS79      -0.0800
     31  N          6.6630   -9.8820   37.1980 N.am   80  GLN80      -0.1979
     32  CA         6.0490  -10.7640   36.2150 C.3    80  GLN80       0.1601
     33  C          4.5740  -10.4260   35.9800 C.2    80  GLN80       0.2287
     34  O          4.1840  -10.1140   34.8550 O.2    80  GLN80      -0.2864
     35  CB         6.3230  -12.2250   36.5890 C.3    80  GLN80       0.0394
     36  CG         5.1990  -13.2210   36.2430 C.3    80  GLN80       0.0908
     37  CD         5.6880  -14.6680   36.2960 C.2    80  GLN80       0.2608
     38  OE1        5.1180  -15.5270   35.6180 O.2    80  GLN80      -0.2717
     39  NE2        6.7080  -14.9430   37.1110 N.am   80  GLN80      -0.0878
     40  N          2.9070   -7.7430   36.6650 N.3    82  ARG82      -0.1231
     41  CA         2.8350   -6.3920   36.1120 C.3    82  ARG82       0.1694
     42  C          3.2450   -6.3000   34.6430 C.2    82  ARG82       0.2592
     43  O          2.6870   -5.5150   33.8650 O.2    82  ARG82      -0.2718
     44  CB         3.7000   -5.4290   36.9230 C.3    82  ARG82       0.0321
     45  CG         2.9120   -4.4290   37.7560 C.3    82  ARG82       0.0489
     46  CD         1.8990   -3.6160   36.9560 C.3    82  ARG82       0.2205
     47  NE         2.4440   -2.8180   35.8590 N.pl3  82  ARG82      -0.0865
     48  CZ         1.7180   -2.1370   34.9710 C.cat  82  ARG82       0.5346
     49  NH1        0.3920   -2.1380   35.0050 N.pl3  82  ARG82       0.1354
     50  NH2        2.2990   -1.4430   34.0000 N.pl3  82  ARG82       0.1354
     51  N          4.2390   -7.1100   34.2890 N.am   83  SER83      -0.1952
     52  CA         4.6270   -7.2320   32.8910 C.3    83  SER83       0.1924
     53  C          3.4300   -7.5780   32.0140 C.2    83  SER83       0.2314
     54  O          3.1480   -6.8980   31.0330 O.2    83  SER83      -0.2863
     55  CB         5.7740   -8.2360   32.7500 C.3    83  SER83       0.2116
     56  OG         6.9490   -7.6850   33.3140 O.3    83  SER83      -0.2180
     57  N          1.2830   -4.6700   31.4310 N.3    86  ALA86      -0.1245
     58  CA         2.0050   -3.6990   30.6030 C.3    86  ALA86       0.1562
     59  C          1.8580   -4.1370   29.1510 C.2    86  ALA86       0.2260
     60  O          1.5400   -3.3280   28.2810 O.2    86  ALA86      -0.2867
     61  CB         3.4790   -3.6820   30.9850 C.3    86  ALA86       0.0290
     62  N          9.2520   -5.3460   25.2330 N.3   117  HIS117     -0.1241
     63  CA        10.2390   -5.2130   26.2910 C.3   117  HIS117      0.1621
     64  C         10.8690   -3.8400   26.2590 C.2   117  HIS117      0.2264
     65  O         10.9380   -3.1470   27.2740 O.2   117  HIS117     -0.2867
     66  CB        11.3020   -6.3030   26.2050 C.3   117  HIS117      0.0745
     67  CG        10.7630   -7.6450   26.5820 C.ar  117  HIS117      0.0817
     68  ND1       10.4340   -8.6000   25.6390 N.ar  117  HIS117     -0.2268
     69  CD2       10.3710   -8.1240   27.7910 C.ar  117  HIS117      0.1154
     70  CE1        9.9230   -9.6430   26.2730 C.ar  117  HIS117      0.1986
     71  NE2        9.8630   -9.3830   27.5730 N.ar  117  HIS117     -0.2212
     72  N          8.4120   -1.5500   27.6730 N.3   120  ILE120     -0.1231
     73  CA         8.3020   -1.7790   29.1040 C.3   120  ILE120      0.1692
     74  C          9.4200   -1.0340   29.8250 C.2   120  ILE120      0.2592
     75  O          9.1370   -0.2630   30.7360 O.2   120  ILE120     -0.2718
     76  CB         8.2590   -3.2730   29.5170 C.3   120  ILE120      0.0266
     77  CG1        6.9800   -3.9120   28.9770 C.3   120  ILE120      0.0019
     78  CG2        8.3330   -3.3730   31.0380 C.3   120  ILE120      0.0020
     79  CD1        6.8560   -5.4200   29.0880 C.3   120  ILE120      0.0001
     80  N         10.6620   -1.1210   29.3590 N.am  121  TYR121     -0.1976
     81  CA        11.7340   -0.3560   30.0090 C.3   121  TYR121      0.1639
     82  C         11.6870    1.1480   29.8200 C.2   121  TYR121      0.2290
     83  O         11.9820    1.9110   30.7380 O.2   121  TYR121     -0.2864
     84  CB        13.1140   -0.8440   29.6030 C.3   121  TYR121      0.0560
     85  CG        13.1770   -2.3390   29.6480 C.ar  121  TYR121     -0.0198
     86  CD1       12.7040   -3.0520   30.7410 C.ar  121  TYR121     -0.0009
     87  CD2       13.7240   -3.0220   28.5810 C.ar  121  TYR121     -0.0009
     88  CE1       12.7460   -4.4340   30.7440 C.ar  121  TYR121      0.0417
     89  CE2       13.8060   -4.3950   28.5920 C.ar  121  TYR121      0.0417
     90  CZ        13.3190   -5.0740   29.6690 C.ar  121  TYR121      0.1957
     91  OH        13.4820   -6.4330   29.5580 O.3   121  TYR121     -0.2866
     92  N          9.1440    2.2730   32.1370 N.3   124  LEU124     -0.1245
     93  CA         9.4720    1.9920   33.5330 C.3   124  LEU124      0.1561
     94  C         10.3530    3.1250   34.0790 C.2   124  LEU124      0.2260
     95  O         10.3470    3.3880   35.2910 O.2   124  LEU124     -0.2867
     96  CB        10.1600    0.6320   33.6300 C.3   124  LEU124      0.0270
     97  CG        10.8640    0.1110   34.8830 C.3   124  LEU124      0.0019
     98  CD1        9.9350    0.0030   36.1000 C.3   124  LEU124      0.0001
     99  CD2       11.4730   -1.2730   34.6480 C.3   124  LEU124      0.0001
    100  N         11.9410    3.0900   42.6730 N.3   133  VAL133     -0.1245
    101  CA        10.8740    2.9760   41.6960 C.3   133  VAL133      0.1561
    102  C          9.5030    2.8200   42.3440 C.2   133  VAL133      0.2260
    103  O          9.4030    2.1220   43.3590 O.2   133  VAL133     -0.2867
    104  CB        11.1380    1.8110   40.7240 C.3   133  VAL133      0.0252
    105  CG1       11.3240    0.5040   41.4820 C.3   133  VAL133      0.0019
    106  CG2       10.0640    1.7610   39.6240 C.3   133  VAL133      0.0019
    107  N          5.9220    1.2340   42.5420 N.3   135  ILE135     -0.1245
    108  CA         5.3660   -0.1000   42.2970 C.3   135  ILE135      0.1561
    109  C          3.8820   -0.1240   42.6310 C.2   135  ILE135      0.2260
    110  O          3.4240    0.7170   43.3970 O.2   135  ILE135     -0.2867
    111  CB         6.0370   -1.2180   43.1310 C.3   135  ILE135      0.0252
    112  CG1        6.1530   -0.8790   44.6200 C.3   135  ILE135      0.0019
    113  CG2        7.3720   -1.7230   42.5490 C.3   135  ILE135      0.0019
    114  CD1        6.4590   -2.1070   45.4660 C.3   135  ILE135      0.0001
    115  N         16.8460   -3.3770   46.1800 N.3   147  LEU147     -0.1245
    116  CA        16.8390   -4.2840   45.0320 C.3   147  LEU147      0.1561
    117  C         18.2540   -4.7700   44.7710 C.2   147  LEU147      0.2260
    118  O         18.4440   -5.9140   44.3670 O.2   147  LEU147     -0.2867
    119  CB        16.2350   -3.6460   43.7810 C.3   147  LEU147      0.0270
    120  CG        14.7660   -3.2520   43.9740 C.3   147  LEU147      0.0019
    121  CD1       14.3830   -2.0860   43.0850 C.3   147  LEU147      0.0001
    122  CD2       13.7950   -4.4160   43.8390 C.3   147  LEU147      0.0001
    123  N         19.3300   -8.1260   47.1320 N.3   150  LEU150     -0.1245
    124  CA        18.7010   -9.4380   47.0230 C.3   150  LEU150      0.1561
    125  C         19.6800  -10.5530   46.6520 C.2   150  LEU150      0.2260
    126  O         20.7780  -10.2900   46.1560 O.2   150  LEU150     -0.2867
    127  CB        17.4840   -9.4050   46.0960 C.3   150  LEU150      0.0270
    128  CG        16.3120   -8.5180   46.5280 C.3   150  LEU150      0.0019
    129  CD1       15.2200   -8.4610   45.4660 C.3   150  LEU150      0.0001
    130  CD2       15.6570   -8.8920   47.8470 C.3   150  LEU150      0.0001
    131  N         18.7490  -12.5130   41.7160 N.3   154  PHE154     -0.1241
    132  CA        17.7220  -11.4750   41.7580 C.3   154  PHE154      0.1605
    133  C         18.1730  -10.0340   42.0150 C.2   154  PHE154      0.2264
    134  O         17.4760   -9.0870   41.6400 O.2   154  PHE154     -0.2867
    135  CB        16.6580  -11.8660   42.7790 C.3   154  PHE154      0.0534
    136  CG        15.9260  -13.1250   42.4230 C.ar  154  PHE154     -0.0203
    137  CD1       14.8100  -13.0920   41.5980 C.ar  154  PHE154     -0.0042
    138  CD2       16.3580  -14.3450   42.9170 C.ar  154  PHE154     -0.0042
    139  CE1       14.1280  -14.2460   41.2580 C.ar  154  PHE154     -0.0003
    140  CE2       15.6810  -15.5090   42.5860 C.ar  154  PHE154     -0.0003
    141  CZ        14.5730  -15.4540   41.7520 C.ar  154  PHE154     -0.0000
    142  N         18.7270   -7.7720   38.6900 N.3   157  PHE157     -0.1227
    143  CA        17.6060   -7.7380   37.7620 C.3   157  PHE157      0.1736
    144  C         17.2720   -6.3050   37.3630 C.2   157  PHE157      0.2595
    145  O         17.1170   -6.0150   36.1750 O.2   157  PHE157     -0.2718
    146  CB        16.3780   -8.3890   38.3990 C.3   157  PHE157      0.0547
    147  CG        15.7250   -9.4680   37.5790 C.ar  157  PHE157     -0.0202
    148  CD1       14.9700   -9.1630   36.4540 C.ar  157  PHE157     -0.0042
    149  CD2       15.7720  -10.7920   38.0000 C.ar  157  PHE157     -0.0042
    150  CE1       14.3350  -10.1640   35.7330 C.ar  157  PHE157     -0.0003
    151  CE2       15.1250  -11.8050   37.3010 C.ar  157  PHE157     -0.0003
    152  CZ        14.4070  -11.4860   36.1570 C.ar  157  PHE157     -0.0000
    153  N         17.1580   -5.4050   38.3340 N.am  158  MET158     -0.1979
    154  CA        16.7140   -4.0430   38.0360 C.3   158  MET158      0.1605
    155  C         17.7820   -2.9530   38.0500 C.2   158  MET158      0.2287
    156  O         17.5000   -1.8100   37.6780 O.2   158  MET158     -0.2864
    157  CB        15.5370   -3.6410   38.9220 C.3   158  MET158      0.0413
    158  CG        14.2270   -3.6980   38.1700 C.3   158  MET158      0.0598
    159  SD        13.0530   -2.6320   39.0110 S.3   158  MET158     -0.1393
    160  CE        12.5040   -3.8100   40.2440 C.3   158  MET158      0.0692
    161  N         18.2410   -1.4880   34.5390 N.3   161  LYS161     -0.1245
    162  CA        17.1450   -0.5660   34.2610 C.3   161  LYS161      0.1561
    163  C         17.3390    0.7790   34.9480 C.2   161  LYS161      0.2260
    164  O         16.9170    1.7850   34.3850 O.2   161  LYS161     -0.2867
    165  CB        15.7980   -1.1540   34.6940 C.3   161  LYS161      0.0271
    166  CG        15.2110   -2.2640   33.8230 C.3   161  LYS161      0.0035
    167  CD        15.9720   -3.5910   33.9390 C.3   161  LYS161      0.0206
    168  CE        15.1040   -4.7440   33.4280 C.3   161  LYS161      0.1093
    169  NZ        15.8180   -5.9900   33.8170 N.3   161  LYS161     -0.1314
    170  N         18.3090   -8.6870   30.2100 N.3   243  HIS243     -0.1241
    171  CA        17.1720   -9.2360   30.9460 C.3   243  HIS243      0.1621
    172  C         16.9690  -10.7130   30.5970 C.2   243  HIS243      0.2264
    173  O         16.7770  -11.5400   31.4930 O.2   243  HIS243     -0.2867
    174  CB        15.9220   -8.4160   30.6210 C.3   243  HIS243      0.0745
    175  CG        14.6610   -8.9060   31.2580 C.ar  243  HIS243      0.0817
    176  ND1       14.1730   -8.3750   32.4330 N.ar  243  HIS243     -0.2268
    177  CD2       13.7450   -9.8150   30.8490 C.ar  243  HIS243      0.1154
    178  CE1       13.0250   -8.9520   32.7360 C.ar  243  HIS243      0.1986
    179  NE2       12.7490   -9.8370   31.7970 N.ar  243  HIS243     -0.2212
    180  N         17.1460  -14.3930   32.9050 N.3   247  LEU247     -0.1245
    181  CA        16.1650  -15.4680   32.8240 C.3   247  LEU247      0.1561
    182  C         16.8210  -16.8480   32.7590 C.2   247  LEU247      0.2260
    183  O         16.4570  -17.7490   33.5100 O.2   247  LEU247     -0.2867
    184  CB        15.2290  -15.2320   31.6390 C.3   247  LEU247      0.0270
    185  CG        13.9230  -14.5100   31.9650 C.3   247  LEU247      0.0019
    186  CD1       14.1330  -13.4690   33.0440 C.3   247  LEU247      0.0001
    187  CD2       13.3210  -13.9190   30.6950 C.3   247  LEU247      0.0001
    188  N          6.4500  -19.3180   33.7390 N.3   259  LEU259     -0.1245
    189  CA         5.9090  -17.9780   33.5600 C.3   259  LEU259      0.1561
    190  C          4.4450  -18.0050   33.1400 C.2   259  LEU259      0.2260
    191  O          3.8840  -19.0330   32.7740 O.2   259  LEU259     -0.2867
    192  CB         6.7560  -17.1670   32.5670 C.3   259  LEU259      0.0270
    193  CG         8.1900  -16.7310   32.8950 C.3   259  LEU259      0.0019
    194  CD1        8.3080  -16.0640   34.2590 C.3   259  LEU259      0.0001
    195  CD2        9.1880  -17.8840   32.8050 C.3   259  LEU259      0.0001
    196  N          3.4430  -14.2240   28.8370 N.3   263  LEU263     -0.1245
    197  CA         4.8600  -13.8840   28.9030 C.3   263  LEU263      0.1561
    198  C          5.7830  -14.9380   28.2930 C.2   263  LEU263      0.2260
    199  O          6.8000  -14.6160   27.6830 O.2   263  LEU263     -0.2867
    200  CB         5.2600  -13.6000   30.3520 C.3   263  LEU263      0.0270
    201  CG         4.7140  -12.3380   31.0310 C.3   263  LEU263      0.0019
    202  CD1        5.0780  -12.3770   32.5120 C.3   263  LEU263      0.0001
    203  CD2        5.2360  -11.0670   30.3770 C.3   263  LEU263      0.0001
    204  N          8.7880  -14.4630   25.4150 N.3   267  TYR267     -0.1241
    205  CA        10.1620  -14.8990   25.6290 C.3   267  TYR267      0.1605
    206  C         10.6240  -16.0680   24.7550 C.2   267  TYR267      0.2264
    207  O         11.8260  -16.2290   24.5340 O.2   267  TYR267     -0.2867
    208  CB        10.4110  -15.2280   27.1040 C.3   267  TYR267      0.0534
    209  CG        10.4120  -14.0130   27.9990 C.ar  267  TYR267     -0.0201
    210  CD1       11.3280  -12.9810   27.8120 C.ar  267  TYR267     -0.0009
    211  CD2        9.5050  -13.9060   29.0430 C.ar  267  TYR267     -0.0009
    212  CE1       11.3270  -11.8630   28.6330 C.ar  267  TYR267      0.0417
    213  CE2        9.4940  -12.7950   29.8670 C.ar  267  TYR267      0.0417
    214  CZ        10.4050  -11.7790   29.6590 C.ar  267  TYR267      0.1957
    215  OH        10.3570  -10.6840   30.4860 O.3   267  TYR267     -0.2866
@<TRIPOS>BOND
     1   207   206    2
     2   206   205    1
     3    62    63    1
     4   204   205    1
     5   205   208    1
     6    68    70   ar
     7    68    67   ar
     8    66    63    1
     9    66    67    1
    10    64    63    1
    11    64    65    2
    12    70    71   ar
    13    67    69   ar
    14   208   209    1
    15    71    69   ar
    16    72    73    1
    17   199   198    2
    18   210   209   ar
    19   210   212   ar
    20   209   211   ar
    21    60    59    2
    22   198   197    1
    23    87    89   ar
    24    87    85   ar
    25    89    90   ar
    26   212   214   ar
    27   196   197    1
    28   197   200    1
    29    77    79    1
    30    77    76    1
    31   211   213   ar
    32    73    76    1
    33    73    74    1
    34    59    58    1
    35    80    74   am
    36    80    81    1
    37    76    78    1
    38    91    90    1
    39    84    85    1
    40    84    81    1
    41    85    86   ar
    42   214   213   ar
    43   214   215    1
    44    90    88   ar
    45    82    81    1
    46    82    83    2
    47    74    75    2
    48   170   171    1
    49   200   201    1
    50   203   201    1
    51   172   171    1
    52   172   173    2
    53    58    61    1
    54    58    57    1
    55   174   171    1
    56   174   175    1
    57   187   185    1
    58    86    88   ar
    59   177   175   ar
    60   177   179   ar
    61   201   202    1
    62    54    53    2
    63   175   176   ar
    64   184   185    1
    65   184   181    1
    66   179   178   ar
    67   185   186    1
    68    53    52    1
    69    92    93    1
    70   176   178   ar
    71   192   193    1
    72   192   189    1
    73    55    52    1
    74    55    56    1
    75   182   181    1
    76   182   183    2
    77   191   190    2
    78   195   193    1
    79   181   180    1
    80    52    51    1
    81   193   194    1
    82   190   189    1
    83   168   169    1
    84   168   167    1
    85    93    96    1
    86    93    94    1
    87   189   188    1
    88    96    97    1
    89   166   167    1
    90   166   165    1
    91    43    42    2
    92    50    48    1
    93    94    95    2
    94   162   161    1
    95   162   165    1
    96   162   163    1
    97    51    42   am
    98   164   163    2
    99    42    41    1
   100    99    97    1
   101    34    33    2
   102    97    98    1
   103    48    49    1
   104    48    47    2
   105    38    37    2
   106   150   152   ar
   107   150   148   ar
   108    47    46    1
   109    33    32    1
   110    41    40    1
   111    41    44    1
   112   152   151   ar
   113   145   144    2
   114    32    35    1
   115    32    31    1
   116    36    37    1
   117    36    35    1
   118    28    27    2
   119    37    39   am
   120   148   147   ar
   121    44    45    1
   122    46    45    1
   123    31    27   am
   124    27    26    1
   125   151   149   ar
   126   144   143    1
   127   144   153   am
   128    24    22   ar
   129    24    23   ar
   130   147   149   ar
   131   147   146    1
   132    22    20   ar
   133   156   155    2
   134   143   146    1
   135   143   142    1
   136   154   155    1
   137   154   153    1
   138   154   157    1
   139   158   157    1
   140   158   159    1
   141    29    26    1
   142    29    30    1
   143    23    21   ar
   144    26    25    1
   145    20    19   ar
   146   159   160    1
   147    17    16    2
   148    21    19   ar
   149   106   104    1
   150    19    18    1
   151    16    15    1
   152   104   105    1
   153   104   101    1
   154    15    18    1
   155    15    14    1
   156   139   137   ar
   157   139   141   ar
   158   137   136   ar
   159   134   133    2
   160   101   102    1
   161   101   100    1
   162   131   132    1
   163     9     8    2
   164   141   140   ar
   165   132   133    1
   166   132   135    1
   167    14     8   am
   168   108   107    1
   169   108   109    1
   170   108   111    1
   171   102   103    2
   172   136   135    1
   173   136   138   ar
   174   113   111    1
   175     8     7    1
   176   140   138   ar
   177   109   110    2
   178   121   120    1
   179   111   112    1
   180    12    10    1
   181   119   120    1
   182   119   116    1
   183   122   120    1
   184     7    10    1
   185     7     6    1
   186     4     3    2
   187    10    11    1
   188   118   117    2
   189   112   114    1
   190   117   116    1
   191   116   115    1
   192     3     2    1
   193   129   128    1
   194    11    13    1
   195   127   128    1
   196   127   124    1
   197   126   125    2
   198     5     2    1
   199     2     1    1
   200   128   130    1
   201   125   124    1
   202   124   123    1
