@<TRIPOS>MOLECULE
tmp/2g0hA00.pdb
 237 223 0 0 0
SMALL
GASTEIGER

@<TRIPOS>ATOM
      1  N        -12.0930   12.3670   47.5040 N.3    72  ALA72      -0.1245
      2  CA       -12.4920   12.1810   46.1140 C.3    72  ALA72       0.1562
      3  C        -11.4530   12.7510   45.1510 C.2    72  ALA72       0.2260
      4  O        -10.8410   12.0120   44.3700 O.2    72  ALA72      -0.2867
      5  CB       -13.8590   12.8070   45.8630 C.3    72  ALA72       0.0290
      6  N         -8.2300   10.9140   44.9750 N.3    75  ILE75      -0.1231
      7  CA        -8.2450    9.7860   44.0380 C.3    75  ILE75       0.1692
      8  C         -8.2760   10.2760   42.5820 C.2    75  ILE75       0.2592
      9  O         -7.4950    9.8270   41.7470 O.2    75  ILE75      -0.2718
     10  CB        -9.3770    8.7700   44.3820 C.3    75  ILE75       0.0266
     11  CG1       -9.0590    8.0360   45.6890 C.3    75  ILE75       0.0019
     12  CG2       -9.6020    7.7340   43.2890 C.3    75  ILE75       0.0020
     13  CD1       -7.8360    7.1280   45.6220 C.3    75  ILE75       0.0001
     14  N         -9.1790   11.2120   42.3010 N.am   76  PHE76      -0.1976
     15  CA        -9.2440   11.9580   41.0460 C.3    76  PHE76       0.1639
     16  C         -7.8560   12.3310   40.5350 C.2    76  PHE76       0.2290
     17  O         -7.5640   12.1740   39.3510 O.2    76  PHE76      -0.2864
     18  CB       -10.1260   13.1950   41.2410 C.3    76  PHE76       0.0560
     19  CG       -10.5940   13.8530   39.9670 C.ar   76  PHE76      -0.0200
     20  CD1      -11.4820   13.2190   39.1110 C.ar   76  PHE76      -0.0042
     21  CD2      -10.1960   15.1460   39.6640 C.ar   76  PHE76      -0.0042
     22  CE1      -11.9140   13.8430   37.9480 C.ar   76  PHE76      -0.0003
     23  CE2      -10.6310   15.7840   38.5140 C.ar   76  PHE76      -0.0003
     24  CZ       -11.4810   15.1280   37.6450 C.ar   76  PHE76      -0.0000
     25  N         -5.6310    8.7550   39.7510 N.3    79  CYS79      -0.1221
     26  CA        -6.1480    8.0040   38.6010 C.3    79  CYS79       0.1808
     27  C         -5.8640    8.6890   37.2630 C.2    79  CYS79       0.2601
     28  O         -5.4760    8.0270   36.2950 O.2    79  CYS79      -0.2717
     29  CB        -7.6320    7.6670   38.7840 C.3    79  CYS79       0.0970
     30  SG        -7.8790    6.2640   39.9150 S.3    79  CYS79      -0.0800
     31  N         -5.9290   10.0190   37.2590 N.am   80  GLN80      -0.1979
     32  CA        -5.3260   10.8420   36.2080 C.3    80  GLN80       0.1601
     33  C         -3.8920   10.4240   35.9050 C.2    80  GLN80       0.2287
     34  O         -3.5200   10.2650   34.7340 O.2    80  GLN80      -0.2864
     35  CB        -5.2970   12.3260   36.5880 C.3    80  GLN80       0.0394
     36  CG        -6.6300   13.0500   36.5300 C.3    80  GLN80       0.0908
     37  CD        -6.4300   14.5360   36.7350 C.2    80  GLN80       0.2608
     38  OE1       -5.4070   15.0850   36.3280 O.2    80  GLN80      -0.2717
     39  NE2       -7.3960   15.1950   37.3670 N.am   80  GLN80      -0.0878
     40  N         -2.4140    7.5090   36.8650 N.3    82  ARG82      -0.1231
     41  CA        -2.5350    6.1640   36.3100 C.3    82  ARG82       0.1694
     42  C         -2.9330    6.1210   34.8260 C.2    82  ARG82       0.2592
     43  O         -2.3630    5.3680   34.0370 O.2    82  ARG82      -0.2718
     44  CB        -3.5160    5.3580   37.1640 C.3    82  ARG82       0.0321
     45  CG        -2.9830    4.0140   37.6010 C.3    82  ARG82       0.0489
     46  CD        -1.9630    3.4190   36.6300 C.3    82  ARG82       0.2205
     47  NE        -2.5540    2.4890   35.6710 N.pl3  82  ARG82      -0.0865
     48  CZ        -1.8650    1.8260   34.7430 C.cat  82  ARG82       0.5346
     49  NH1       -0.5530    2.0020   34.6460 N.pl3  82  ARG82       0.1354
     50  NH2       -2.4710    0.9600   33.9340 N.pl3  82  ARG82       0.1354
     51  N         -3.9000    6.9540   34.4480 N.am   83  SER83      -0.1952
     52  CA        -4.3310    7.0550   33.0580 C.3    83  SER83       0.1924
     53  C         -3.1860    7.4550   32.1410 C.2    83  SER83       0.2314
     54  O         -2.8440    6.7120   31.2220 O.2    83  SER83      -0.2863
     55  CB        -5.4990    8.0260   32.8900 C.3    83  SER83       0.2116
     56  OG        -6.5290    7.7090   33.8070 O.3    83  SER83      -0.2180
     57  N         -1.0470    4.4300   31.7260 N.3    86  ALA86      -0.1245
     58  CA        -1.6380    3.4640   30.7770 C.3    86  ALA86       0.1562
     59  C         -1.5430    3.8770   29.3050 C.2    86  ALA86       0.2260
     60  O         -1.1960    3.0750   28.4520 O.2    86  ALA86      -0.2867
     61  CB        -3.0950    3.1470   31.1350 C.3    86  ALA86       0.0290
     62  N         -8.3360    1.1650   27.8500 N.3   120  ILE120     -0.1231
     63  CA        -8.2610    1.4240   29.2830 C.3   120  ILE120      0.1692
     64  C         -9.3130    0.5980   30.0360 C.2   120  ILE120      0.2592
     65  O         -8.9560   -0.2420   30.8650 O.2   120  ILE120     -0.2718
     66  CB        -8.4070    2.9330   29.6320 C.3   120  ILE120      0.0266
     67  CG1       -7.0940    3.6710   29.3510 C.3   120  ILE120      0.0019
     68  CG2       -8.7680    3.1240   31.1170 C.3   120  ILE120      0.0020
     69  CD1       -7.1620    5.1810   29.5030 C.3   120  ILE120      0.0001
     70  N        -10.5900    0.7870   29.7060 N.am  121  TYR121     -0.1976
     71  CA       -11.6560    0.0280   30.3540 C.3   121  TYR121      0.1639
     72  C        -11.6210   -1.4670   30.0840 C.2   121  TYR121      0.2290
     73  O        -11.8710   -2.2790   30.9720 O.2   121  TYR121     -0.2864
     74  CB       -13.0240    0.5810   29.9730 C.3   121  TYR121      0.0560
     75  CG       -13.0240    2.0760   30.0060 C.ar  121  TYR121     -0.0198
     76  CD1      -12.4190    2.7680   31.0510 C.ar  121  TYR121     -0.0009
     77  CD2      -13.6350    2.8050   28.9960 C.ar  121  TYR121     -0.0009
     78  CE1      -12.3680    4.1650   31.0400 C.ar  121  TYR121      0.0417
     79  CE2      -13.6380    4.1890   29.0120 C.ar  121  TYR121      0.0417
     80  CZ       -12.9950    4.8560   30.0260 C.ar  121  TYR121      0.1957
     81  OH       -12.9930    6.2300   30.0370 O.3   121  TYR121     -0.2866
     82  N         -8.9130   -2.5990   32.2360 N.3   124  LEU124     -0.1245
     83  CA        -9.3710   -2.3940   33.6060 C.3   124  LEU124      0.1561
     84  C        -10.2600   -3.5160   34.1330 C.2   124  LEU124      0.2260
     85  O        -10.2240   -3.8060   35.3350 O.2   124  LEU124     -0.2867
     86  CB       -10.0900   -1.0530   33.7500 C.3   124  LEU124      0.0270
     87  CG       -10.0820   -0.5430   35.1910 C.3   124  LEU124      0.0019
     88  CD1       -8.7220   -0.8080   35.8330 C.3   124  LEU124      0.0001
     89  CD2      -10.5040    0.9270   35.2760 C.3   124  LEU124      0.0001
     90  N         -8.5010   -6.3820   35.9340 N.3   127  LEU127     -0.1231
     91  CA        -8.0190   -6.1200   37.2870 C.3   127  LEU127      0.1693
     92  C         -9.1920   -6.0170   38.2470 C.2   127  LEU127      0.2591
     93  O         -9.0220   -5.6730   39.4180 O.2   127  LEU127     -0.2718
     94  CB        -7.2520   -4.7930   37.3680 C.3   127  LEU127      0.0284
     95  CG        -6.0600   -4.4530   36.4760 C.3   127  LEU127      0.0019
     96  CD1       -5.3220   -3.2240   37.0310 C.3   127  LEU127      0.0001
     97  CD2       -5.1760   -5.6680   36.2980 C.3   127  LEU127      0.0001
     98  N        -10.3680   -6.3290   37.7150 N.am  128  MET128     -0.1979
     99  CA       -11.6180   -6.1950   38.4370 C.3   128  MET128      0.1605
    100  C        -12.2690   -7.5240   38.7950 C.2   128  MET128      0.2287
    101  O        -12.0020   -8.5530   38.1680 O.2   128  MET128     -0.2864
    102  CB       -12.5850   -5.3650   37.6090 C.3   128  MET128      0.0413
    103  CG       -12.2660   -3.9050   37.7490 C.3   128  MET128      0.0598
    104  SD       -13.4110   -2.9820   36.7440 S.3   128  MET128     -0.1393
    105  CE       -13.2150   -1.3030   37.3510 C.3   128  MET128      0.0692
    106  N        -11.4610   -3.4150   42.6620 N.3   133  VAL133     -0.1231
    107  CA       -10.4420   -3.2940   41.6250 C.3   133  VAL133      0.1692
    108  C         -9.0330   -3.1980   42.2010 C.2   133  VAL133      0.2592
    109  O         -8.8220   -2.4970   43.1860 O.2   133  VAL133     -0.2718
    110  CB       -10.7760   -2.1090   40.6840 C.3   133  VAL133      0.0266
    111  CG1      -11.1970   -0.8670   41.4760 C.3   133  VAL133      0.0020
    112  CG2       -9.6470   -1.8400   39.6930 C.3   133  VAL133      0.0020
    113  N         -8.0850   -3.9250   41.6180 N.am  134  LEU134     -0.1966
    114  CA        -6.6770   -3.7480   41.9250 C.3   134  LEU134      0.1728
    115  C         -6.2500   -2.3630   41.4710 C.2   134  LEU134      0.2616
    116  O         -6.5810   -1.9520   40.3590 O.2   134  LEU134     -0.2715
    117  CB        -5.8290   -4.7970   41.2040 C.3   134  LEU134      0.0311
    118  CG        -5.9500   -6.2600   41.6400 C.3   134  LEU134      0.0022
    119  CD1       -5.0700   -7.1690   40.7810 C.3   134  LEU134      0.0001
    120  CD2       -5.6140   -6.4030   43.1150 C.3   134  LEU134      0.0001
    121  N         -5.5710   -1.6340   42.3570 N.am  135  ILE135     -0.1977
    122  CA        -5.0020   -0.3040   42.1110 C.3   135  ILE135      0.1596
    123  C         -3.5720   -0.3790   42.6320 C.2   135  ILE135      0.2287
    124  O         -3.2600   -1.2750   43.4110 O.2   135  ILE135     -0.2864
    125  CB        -5.7710    0.8150   42.8690 C.3   135  ILE135      0.0276
    126  CG1       -5.9900    0.5170   44.3580 C.3   135  ILE135      0.0022
    127  CG2       -7.1320    1.1160   42.2640 C.3   135  ILE135      0.0022
    128  CD1       -6.6920    1.6410   45.1160 C.3   135  ILE135      0.0001
    129  N        -10.0500   -1.8600   46.3400 N.3   142  MET142     -0.1245
    130  CA       -10.8450   -0.6650   46.5820 C.3   142  MET142      0.1570
    131  C        -12.3260   -0.8860   46.2780 C.2   142  MET142      0.2261
    132  O        -12.8300   -0.4700   45.2410 O.2   142  MET142     -0.2867
    133  CB       -10.2920    0.5000   45.7590 C.3   142  MET142      0.0387
    134  CG       -10.8170    1.8840   46.1270 C.3   142  MET142      0.0595
    135  SD        -9.9230    3.2130   45.2810 S.3   142  MET142     -0.1393
    136  CE       -10.8740    4.6430   45.8010 C.3   142  MET142      0.0692
    137  N        -16.4240    3.1030   46.2390 N.3   147  LEU147     -0.1245
    138  CA       -16.3870    3.9830   45.0780 C.3   147  LEU147      0.1561
    139  C        -17.7840    4.4920   44.7460 C.2   147  LEU147      0.2260
    140  O        -17.9690    5.6720   44.4360 O.2   147  LEU147     -0.2867
    141  CB       -15.7740    3.2600   43.8780 C.3   147  LEU147      0.0270
    142  CG       -14.2710    2.9890   43.9730 C.3   147  LEU147      0.0019
    143  CD1      -13.8720    1.8190   43.0920 C.3   147  LEU147      0.0001
    144  CD2      -13.4650    4.2310   43.6140 C.3   147  LEU147      0.0001
    145  N        -19.3850    7.6050   47.0410 N.3   150  LEU150     -0.1245
    146  CA       -18.8320    8.9600   47.0260 C.3   150  LEU150      0.1561
    147  C        -19.8000   10.0420   46.5590 C.2   150  LEU150      0.2260
    148  O        -20.9260    9.7500   46.1510 O.2   150  LEU150     -0.2867
    149  CB       -17.5110    9.0550   46.2570 C.3   150  LEU150      0.0270
    150  CG       -16.3790    8.1220   46.6850 C.3   150  LEU150      0.0019
    151  CD1      -15.0790    8.4110   45.9470 C.3   150  LEU150      0.0001
    152  CD2      -16.1700    8.1960   48.1870 C.3   150  LEU150      0.0001
    153  N        -18.7610   12.4180   41.9280 N.3   154  PHE154     -0.1241
    154  CA       -17.8290   11.2920   41.9700 C.3   154  PHE154      0.1605
    155  C        -18.4730    9.9330   42.2600 C.2   154  PHE154      0.2264
    156  O        -17.7960    8.9070   42.2930 O.2   154  PHE154     -0.2867
    157  CB       -16.7290   11.6020   42.9880 C.3   154  PHE154      0.0534
    158  CG       -15.7600   12.6550   42.5260 C.ar  154  PHE154     -0.0203
    159  CD1      -14.4820   12.3030   42.0990 C.ar  154  PHE154     -0.0042
    160  CD2      -16.1260   13.9920   42.4920 C.ar  154  PHE154     -0.0042
    161  CE1      -13.5880   13.2600   41.6400 C.ar  154  PHE154     -0.0003
    162  CE2      -15.2490   14.9530   42.0150 C.ar  154  PHE154     -0.0003
    163  CZ       -13.9800   14.5880   41.5860 C.ar  154  PHE154     -0.0000
    164  N        -18.9250    6.9070   38.8120 N.3   157  PHE157     -0.1227
    165  CA       -17.7160    6.9250   37.9860 C.3   157  PHE157      0.1736
    166  C        -17.2160    5.5360   37.5790 C.2   157  PHE157      0.2595
    167  O        -16.8600    5.3210   36.4180 O.2   157  PHE157     -0.2718
    168  CB       -16.5980    7.6960   38.6970 C.3   157  PHE157      0.0547
    169  CG       -15.8890    8.7020   37.8240 C.ar  157  PHE157     -0.0202
    170  CD1      -14.7810    8.3350   37.0670 C.ar  157  PHE157     -0.0042
    171  CD2      -16.3200   10.0260   37.7810 C.ar  157  PHE157     -0.0042
    172  CE1      -14.1310    9.2650   36.2630 C.ar  157  PHE157     -0.0003
    173  CE2      -15.6670   10.9660   37.0000 C.ar  157  PHE157     -0.0003
    174  CZ       -14.5780   10.5810   36.2270 C.ar  157  PHE157     -0.0000
    175  N        -17.1370    4.6260   38.5490 N.am  158  MET158     -0.1979
    176  CA       -16.5720    3.2860   38.3910 C.3   158  MET158      0.1605
    177  C        -17.6560    2.2170   38.2270 C.2   158  MET158      0.2287
    178  O        -17.4040    1.1270   37.7090 O.2   158  MET158     -0.2864
    179  CB       -15.7390    2.9430   39.6250 C.3   158  MET158      0.0413
    180  CG       -14.3440    3.5370   39.6980 C.3   158  MET158      0.0598
    181  SD       -13.3110    3.2380   38.2430 S.3   158  MET158     -0.1393
    182  CE       -13.6670    4.8190   37.4920 C.3   158  MET158      0.0692
    183  N        -18.1810    0.8490   34.8570 N.3   161  LYS161     -0.1245
    184  CA       -16.9850    0.0880   34.5400 C.3   161  LYS161      0.1561
    185  C        -17.0620   -1.2940   35.1620 C.2   161  LYS161      0.2260
    186  O        -16.6060   -2.2750   34.5720 O.2   161  LYS161     -0.2867
    187  CB       -15.7510    0.7940   35.1020 C.3   161  LYS161      0.0271
    188  CG       -15.0360    1.7400   34.1550 C.3   161  LYS161      0.0035
    189  CD       -15.6760    3.1050   34.1480 C.3   161  LYS161      0.0206
    190  CE       -14.6510    4.1700   33.7720 C.3   161  LYS161      0.1093
    191  NZ       -15.3430    5.4760   33.9610 N.3   161  LYS161     -0.1314
    192  N        -18.1450    8.2750   30.8140 N.3   243  HIS243     -0.1241
    193  CA       -16.9370    8.8260   31.4080 C.3   243  HIS243      0.1621
    194  C        -16.7620   10.3110   31.0730 C.2   243  HIS243      0.2264
    195  O        -16.8520   11.1610   31.9590 O.2   243  HIS243     -0.2867
    196  CB       -15.7050    8.0190   30.9800 C.3   243  HIS243      0.0745
    197  CG       -14.4750    8.3350   31.7750 C.ar  243  HIS243      0.0817
    198  ND1      -14.2490    7.8300   33.0370 N.ar  243  HIS243     -0.2268
    199  CD2      -13.4140    9.1280   31.4950 C.ar  243  HIS243      0.1154
    200  CE1      -13.1000    8.2920   33.4980 C.ar  243  HIS243      0.1986
    201  NE2      -12.5650    9.0690   32.5740 N.ar  243  HIS243     -0.2212
    202  N        -16.8830   13.9090   33.4830 N.3   247  LEU247     -0.1245
    203  CA       -15.8000   14.8430   33.2120 C.3   247  LEU247      0.1561
    204  C        -16.2270   16.2300   32.7160 C.2   247  LEU247      0.2260
    205  O        -15.3830   17.1200   32.6190 O.2   247  LEU247     -0.2867
    206  CB       -14.8550   14.1920   32.2010 C.3   247  LEU247      0.0270
    207  CG       -13.3760   14.0700   32.5580 C.3   247  LEU247      0.0019
    208  CD1      -13.2290   13.2800   33.8450 C.3   247  LEU247      0.0001
    209  CD2      -12.5950   13.4510   31.4120 C.3   247  LEU247      0.0001
    210  N         -5.4520   19.2660   33.7240 N.3   259  LEU259     -0.1245
    211  CA        -5.0260   17.8880   33.4990 C.3   259  LEU259      0.1561
    212  C         -3.5890   17.8610   32.9840 C.2   259  LEU259      0.2260
    213  O         -3.1350   18.8090   32.3410 O.2   259  LEU259     -0.2867
    214  CB        -5.9600   17.2080   32.4880 C.3   259  LEU259      0.0270
    215  CG        -7.2440   16.5260   32.9780 C.3   259  LEU259      0.0019
    216  CD1       -8.2060   17.4400   33.7270 C.3   259  LEU259      0.0001
    217  CD2       -7.9550   15.9040   31.7880 C.3   259  LEU259      0.0001
    218  N         -3.5220   14.0910   28.8510 N.3   263  LEU263     -0.1245
    219  CA        -4.9440   13.8200   29.0530 C.3   263  LEU263      0.1561
    220  C         -5.8350   14.9150   28.4620 C.2   263  LEU263      0.2260
    221  O         -6.9000   14.6430   27.9060 O.2   263  LEU263     -0.2867
    222  CB        -5.2770   13.5930   30.5370 C.3   263  LEU263      0.0270
    223  CG        -4.5120   12.5450   31.3580 C.3   263  LEU263      0.0019
    224  CD1       -4.8790   12.6060   32.8350 C.3   263  LEU263      0.0001
    225  CD2       -4.7630   11.1460   30.8290 C.3   263  LEU263      0.0001
    226  N         -8.6550   13.9830   25.7150 N.3   267  TYR267     -0.1241
    227  CA       -10.0500   14.3580   25.9280 C.3   267  TYR267      0.1605
    228  C        -10.5150   15.5530   25.0930 C.2   267  TYR267      0.2264
    229  O        -11.6810   15.9400   25.1670 O.2   267  TYR267     -0.2867
    230  CB       -10.2820   14.6640   27.4100 C.3   267  TYR267      0.0534
    231  CG       -10.1970   13.4730   28.3440 C.ar  267  TYR267     -0.0201
    232  CD1      -11.0750   12.3970   28.2260 C.ar  267  TYR267     -0.0009
    233  CD2       -9.2820   13.4530   29.3900 C.ar  267  TYR267     -0.0009
    234  CE1      -11.0280   11.3260   29.1060 C.ar  267  TYR267      0.0417
    235  CE2       -9.2030   12.3700   30.2490 C.ar  267  TYR267      0.0417
    236  CZ       -10.0800   11.3120   30.1100 C.ar  267  TYR267      0.1957
    237  OH       -10.0110   10.2590   30.9930 O.3   267  TYR267     -0.2866
@<TRIPOS>BOND
     1   228   229    2
     2   228   227    1
     3   226   227    1
     4   227   230    1
     5   230   231    1
     6    62    63    1
     7   221   220    2
     8   232   231   ar
     9   232   234   ar
    10   231   233   ar
    11    60    59    2
    12   220   219    1
    13   218   219    1
    14    77    79   ar
    15    77    75   ar
    16    79    80   ar
    17   219   222    1
    18   234   236   ar
    19    63    66    1
    20    63    64    1
    21    59    58    1
    22    67    69    1
    23    67    66    1
    24   233   235   ar
    25    66    68    1
    26    70    64   am
    27    70    71    1
    28    74    75    1
    29    74    71    1
    30    75    76   ar
    31    80    81    1
    32    80    78   ar
    33    64    65    2
    34    72    71    1
    35    72    73    2
    36   236   235   ar
    37   236   237    1
    38   222   223    1
    39    58    61    1
    40    58    57    1
    41   192   193    1
    42   225   223    1
    43   196   193    1
    44   196   197    1
    45    78    76   ar
    46   194   193    1
    47   194   195    2
    48    54    53    2
    49   223   224    1
    50   209   207    1
    51   199   197   ar
    52   199   201   ar
    53   197   198   ar
    54   217   215    1
    55    53    52    1
    56   206   207    1
    57   206   203    1
    58    82    83    1
    59   213   212    2
    60   214   215    1
    61   214   211    1
    62   207   208    1
    63   201   200   ar
    64   205   204    2
    65   204   203    1
    66    55    52    1
    67    55    56    1
    68   215   216    1
    69   212   211    1
    70   198   200   ar
    71    52    51    1
    72   203   202    1
    73   211   210    1
    74    83    86    1
    75    83    84    1
    76    86    87    1
    77   190   191    1
    78   190   189    1
    79    50    48    1
    80    43    42    2
    81    84    85    2
    82   189   188    1
    83   188   187    1
    84    51    42   am
    85   184   183    1
    86   184   187    1
    87   184   185    1
    88   186   185    2
    89    49    48    1
    90    34    33    2
    91    48    47    2
    92    42    41    1
    93    87    89    1
    94    87    88    1
    95    47    46    1
    96    33    32    1
    97    90    91    1
    98    32    35    1
    99    32    31    1
   100   174   172   ar
   101   174   173   ar
   102   172   170   ar
   103    28    27    2
   104    97    95    1
   105    41    40    1
   106    41    44    1
   107    38    37    2
   108   167   166    2
   109    95    96    1
   110    95    94    1
   111    36    35    1
   112    36    37    1
   113    46    45    1
   114    37    39   am
   115   104   105    1
   116   104   103    1
   117   173   171   ar
   118   170   169   ar
   119    44    45    1
   120    31    27   am
   121    27    26    1
   122    91    94    1
   123    91    92    1
   124   182   181    1
   125   166   165    1
   126   166   175   am
   127   102   103    1
   128   102    99    1
   129    24    22   ar
   130    24    23   ar
   131   178   177    2
   132    98    92   am
   133    98    99    1
   134   171   169   ar
   135   169   168    1
   136    22    20   ar
   137   165   168    1
   138   165   164    1
   139   101   100    2
   140   177   176    1
   141   181   180    1
   142    92    93    2
   143   176   175    1
   144   176   179    1
   145    99   100    1
   146    23    21   ar
   147    26    29    1
   148    26    25    1
   149    29    30    1
   150    20    19   ar
   151    17    16    2
   152   179   180    1
   153    21    19   ar
   154   112   110    1
   155    19    18    1
   156   116   115    2
   157    16    15    1
   158   110   111    1
   159   110   107    1
   160   119   118    1
   161    15    18    1
   162    15    14    1
   163   117   118    1
   164   117   114    1
   165   115   114    1
   166   115   121   am
   167   163   161   ar
   168   163   162   ar
   169   113   114    1
   170   113   108   am
   171   107   108    1
   172   107   106    1
   173   118   120    1
   174   161   159   ar
   175     9     8    2
   176   153   154    1
   177   154   155    1
   178   154   157    1
   179   162   160   ar
   180   159   158   ar
   181   122   121    1
   182   122   123    1
   183   122   125    1
   184   108   109    2
   185   155   156    2
   186   127   125    1
   187    14     8   am
   188   160   158   ar
   189   158   157    1
   190     8     7    1
   191   123   124    2
   192   125   126    1
   193   143   142    1
   194    12    10    1
   195   144   142    1
   196   141   142    1
   197   141   138    1
   198     7    10    1
   199     7     6    1
   200   126   128    1
   201     4     3    2
   202    10    11    1
   203   140   139    2
   204   139   138    1
   205   138   137    1
   206     3     2    1
   207   132   131    2
   208   135   136    1
   209   135   134    1
   210    13    11    1
   211   133   134    1
   212   133   130    1
   213     5     2    1
   214   151   150    1
   215     2     1    1
   216   148   147    2
   217   149   150    1
   218   149   146    1
   219   131   130    1
   220   129   130    1
   221   147   146    1
   222   150   152    1
   223   146   145    1
