@<TRIPOS>MOLECULE
tmp/2g0lA00.pdb
 120 119 0 0 0
SMALL
GASTEIGER

@<TRIPOS>ATOM
      1  N          3.9050   -0.4090   -0.1020 N.3    37  CYS37      -0.1235
      2  CA         4.6740    0.5860    0.6300 C.3    37  CYS37       0.1677
      3  C          5.4790   -0.0480    1.7540 C.2    37  CYS37       0.2270
      4  O          4.9310   -0.4160    2.7930 O.2    37  CYS37      -0.2867
      5  CB         3.7420    1.6520    1.1980 C.3    37  CYS37       0.0956
      6  SG         2.2790    1.9840    0.1600 S.3    37  CYS37      -0.0801
      7  N         12.2510    5.5980    9.3690 N.3    43  GLY43      -0.1210
      8  CA        10.9760    6.2090    9.6870 C.3    43  GLY43       0.1956
      9  C         10.2260    6.6420    8.4450 C.2    43  GLY43       0.2612
     10  O          9.1390    7.2140    8.5300 O.2    43  GLY43      -0.2717
     11  N         10.8080    6.3680    7.2870 N.am   44  VAL44      -0.1965
     12  CA        10.1990    6.7390    6.0220 C.3    44  VAL44       0.1727
     13  C          9.8450    5.4980    5.2170 C.2    44  VAL44       0.2616
     14  O         10.6450    4.5660    5.1010 O.2    44  VAL44      -0.2715
     15  CB        11.1320    7.6340    5.1740 C.3    44  VAL44       0.0290
     16  CG1       10.3610    8.2880    4.0400 C.3    44  VAL44       0.0023
     17  CG2       11.8080    8.6930    6.0320 C.3    44  VAL44       0.0023
     18  N          8.6450    5.4890    4.6690 N.am   45  LEU45      -0.1963
     19  CA         8.1760    4.3780    3.8630 C.3    45  LEU45       0.1728
     20  C          7.8770    4.8870    2.4630 C.2    45  LEU45       0.2616
     21  O          7.8270    6.0980    2.2510 O.2    45  LEU45      -0.2715
     22  CB         6.9360    3.7400    4.5000 C.3    45  LEU45       0.0311
     23  CG         7.1150    3.3090    5.9560 C.3    45  LEU45       0.0022
     24  CD1        6.2000    4.1140    6.8670 C.3    45  LEU45       0.0001
     25  CD2        6.8590    1.8150    6.1010 C.3    45  LEU45       0.0001
     26  N          7.6860    3.9870    1.5110 N.am   46  ALA46      -0.1963
     27  CA         7.4140    4.4000    0.1420 C.3    46  ALA46       0.1728
     28  C          6.5870    3.3660   -0.6110 C.2    46  ALA46       0.2616
     29  O          6.8230    2.1660   -0.4950 O.2    46  ALA46      -0.2715
     30  CB         8.7240    4.6610   -0.5780 C.3    46  ALA46       0.0334
     31  N          5.6200    3.8510   -1.3850 N.am   47  CYS47      -0.1968
     32  CA         4.7380    2.9920   -2.1720 C.3    47  CYS47       0.1712
     33  C          5.2530    2.8520   -3.6020 C.2    47  CYS47       0.2296
     34  O          6.1730    3.5630   -4.0030 O.2    47  CYS47      -0.2864
     35  CB         3.3220    3.5700   -2.1970 C.3    47  CYS47       0.0983
     36  SG         2.6020    3.8560   -0.5530 S.3    47  CYS47      -0.0798
     37  N          7.8720    5.7630   -3.6150 N.3    76  PHE76      -0.1227
     38  CA         7.3330    7.1060   -3.7370 C.3    76  PHE76       0.1736
     39  C          6.5430    7.4800   -2.4950 C.2    76  PHE76       0.2595
     40  O          5.8940    6.6320   -1.8820 O.2    76  PHE76      -0.2718
     41  CB         6.4310    7.2120   -4.9730 C.3    76  PHE76       0.0547
     42  CG         7.1630    7.5390   -6.2430 C.ar   76  PHE76      -0.0202
     43  CD1        7.9780    6.6000   -6.8530 C.ar   76  PHE76      -0.0042
     44  CD2        7.0290    8.7850   -6.8320 C.ar   76  PHE76      -0.0042
     45  CE1        8.6470    6.8980   -8.0240 C.ar   76  PHE76      -0.0003
     46  CE2        7.6950    9.0860   -8.0040 C.ar   76  PHE76      -0.0003
     47  CZ         8.5050    8.1390   -8.6020 C.ar   76  PHE76      -0.0000
     48  N          6.6070    8.7460   -2.1210 N.am   77  LEU77      -0.1966
     49  CA         5.8870    9.2360   -0.9560 C.3    77  LEU77       0.1728
     50  C          4.4490    9.5680   -1.3490 C.2    77  LEU77       0.2616
     51  O          4.0630    9.3970   -2.5090 O.2    77  LEU77      -0.2715
     52  CB         6.5850   10.4670   -0.3680 C.3    77  LEU77       0.0311
     53  CG         8.1080   10.3640   -0.2370 C.3    77  LEU77       0.0022
     54  CD1        8.6780   11.6560    0.3300 C.3    77  LEU77       0.0001
     55  CD2        8.4940    9.1810    0.6390 C.3    77  LEU77       0.0001
     56  N          3.6580   10.0520   -0.4030 N.am   78  PHE78      -0.1974
     57  CA         2.2660   10.3810   -0.6890 C.3    78  PHE78       0.1639
     58  C          2.1460   11.7610   -1.3200 C.2    78  PHE78       0.2290
     59  O          1.1180   12.0960   -1.9110 O.2    78  PHE78      -0.2864
     60  CB         1.4170   10.3120    0.5790 C.3    78  PHE78       0.0560
     61  CG         0.9740    8.9210    0.9290 C.ar   78  PHE78      -0.0200
     62  CD1        0.3460    8.1220   -0.0140 C.ar   78  PHE78      -0.0042
     63  CD2        1.1830    8.4100    2.1970 C.ar   78  PHE78      -0.0042
     64  CE1       -0.0640    6.8410    0.3010 C.ar   78  PHE78      -0.0003
     65  CE2        0.7750    7.1310    2.5220 C.ar   78  PHE78      -0.0003
     66  CZ         0.1510    6.3460    1.5710 C.ar   78  PHE78      -0.0000
     67  N          6.0630   -5.0160    2.6010 N.3    94  GLN94      -0.1231
     68  CA         4.8180   -4.8600    3.3410 C.3    94  GLN94       0.1698
     69  C          3.7970   -4.1120    2.4980 C.2    94  GLN94       0.2592
     70  O          4.1060   -3.6720    1.3910 O.2    94  GLN94      -0.2718
     71  CB         5.0560   -4.1390    4.6720 C.3    94  GLN94       0.0381
     72  CG         5.7790   -2.8150    4.5380 C.3    94  GLN94       0.0905
     73  CD         5.6430   -1.9540    5.7760 C.2    94  GLN94       0.2608
     74  OE1        6.4550   -2.0320    6.6990 O.2    94  GLN94      -0.2717
     75  NE2        4.6140   -1.1230    5.8020 N.am   94  GLN94      -0.0878
     76  N          2.5850   -3.9810    3.0150 N.am   95  VAL95      -0.1966
     77  CA         1.5170   -3.2950    2.2960 C.3    95  VAL95       0.1727
     78  C          1.1980   -1.9520    2.9400 C.2    95  VAL95       0.2617
     79  O          1.1740   -1.8300    4.1660 O.2    95  VAL95      -0.2715
     80  CB         0.2250   -4.1460    2.2480 C.3    95  VAL95       0.0290
     81  CG1       -0.7540   -3.5890    1.2210 C.3    95  VAL95       0.0023
     82  CG2        0.5460   -5.6050    1.9520 C.3    95  VAL95       0.0023
     83  N          0.9640   -0.9500    2.1070 N.am   96  GLY96      -0.1940
     84  CA         0.6370    0.3660    2.5960 C.3    96  GLY96       0.2014
     85  C         -0.6890    0.8420    2.0560 C.2    96  GLY96       0.2639
     86  O         -0.9150    0.8060    0.8470 O.2    96  GLY96      -0.2714
     87  N         -1.5650    1.2790    2.9460 N.am   97  LEU97      -0.1963
     88  CA        -2.8880    1.7450    2.5580 C.3    97  LEU97       0.1728
     89  C         -3.2710    2.9960    3.3360 C.2    97  LEU97       0.2616
     90  O         -3.4500    2.9480    4.5530 O.2    97  LEU97      -0.2715
     91  CB        -3.9280    0.6380    2.7930 C.3    97  LEU97       0.0311
     92  CG        -3.4230   -0.5720    3.5900 C.3    97  LEU97       0.0022
     93  CD1       -3.4850   -0.3070    5.0860 C.3    97  LEU97       0.0001
     94  CD2       -4.2140   -1.8180    3.2360 C.3    97  LEU97       0.0001
     95  N         -3.3810    4.1180    2.6370 N.am   98  SER98      -0.1950
     96  CA        -3.7460    5.3810    3.2690 C.3    98  SER98       0.1924
     97  C         -4.3490    6.3420    2.2470 C.2    98  SER98       0.2314
     98  O         -4.2280    6.1320    1.0410 O.2    98  SER98      -0.2863
     99  CB        -2.5230    6.0280    3.9250 C.3    98  SER98       0.2116
    100  OG        -1.9880    5.2020    4.9460 O.3    98  SER98      -0.2180
    101  N         -5.9830    2.4460    7.7040 N.3   105  PRO105     -0.2102
    102  CA        -5.6720    1.2800    8.5290 C.3   105  PRO105      0.1504
    103  C         -4.1740    1.1620    8.8020 C.2   105  PRO105      0.2576
    104  O         -3.3610    1.8630    8.1920 O.2   105  PRO105     -0.2718
    105  CB        -6.1600    0.0860    7.6880 C.3   105  PRO105      0.0282
    106  CG        -6.9180    0.6790    6.5440 C.3   105  PRO105      0.0208
    107  CD        -6.3560    2.0540    6.3420 C.3   105  PRO105      0.0893
    108  N         -3.8160    0.2810    9.7220 N.am  106  GLU106     -0.1966
    109  CA        -2.4190    0.0680   10.0690 C.3   106  GLU106      0.1733
    110  C         -1.7310   -0.7860    9.0110 C.2   106  GLU106      0.2616
    111  O         -2.3690   -1.6290    8.3730 O.2   106  GLU106     -0.2715
    112  CB        -2.3060   -0.5910   11.4420 C.3   106  GLU106      0.0429
    113  CG        -2.3190    0.4040   12.5870 C.3   106  GLU106      0.1163
    114  CD        -2.4060   -0.2600   13.9450 C.2   106  GLU106      0.3649
    115  OE1       -1.5120   -1.0680   14.2810 O.co2 106  GLU106     -0.2457
    116  OE2       -3.3670    0.0270   14.6920 O.co2 106  GLU106     -0.2457
    117  N         -0.4360   -0.5690    8.8320 N.am  107  GLY107     -0.1955
    118  CA         0.3130   -1.3140    7.8390 C.3   107  GLY107      0.1869
    119  C          0.5140   -2.7670    8.2180 C.2   107  GLY107      0.2309
    120  O          0.6710   -3.0980    9.3980 O.2   107  GLY107     -0.2863
@<TRIPOS>BOND
     1    47    45   ar
     2    47    46   ar
     3    45    43   ar
     4    46    44   ar
     5    43    42   ar
     6    44    42   ar
     7    42    41    1
     8    41    38    1
     9    34    33    2
    10    38    37    1
    11    38    39    1
    12    33    32    1
    13    51    50    2
    14    39    48   am
    15    39    40    2
    16    35    32    1
    17    35    36    1
    18    32    31    1
    19    48    49    1
    20    59    58    2
    21    31    28   am
    22    50    49    1
    23    50    56   am
    24    58    57    1
    25    49    52    1
    26    57    56    1
    27    57    60    1
    28    28    29    2
    29    28    27    1
    30    30    27    1
    31    36     6    1
    32    52    53    1
    33    53    54    1
    34    53    55    1
    35     1     2    1
    36    62    64   ar
    37    62    61   ar
    38    27    26    1
    39     6     5    1
    40    64    66   ar
    41    60    61    1
    42     2     5    1
    43     2     3    1
    44    86    85    2
    45    61    63   ar
    46    98    97    2
    47    81    80    1
    48    70    69    2
    49    26    20   am
    50    66    65   ar
    51     3     4    2
    52    82    80    1
    53    85    84    1
    54    85    87   am
    55    83    84    1
    56    83    78   am
    57    63    65   ar
    58    97    96    1
    59    80    77    1
    60    21    20    2
    61    77    78    1
    62    77    76    1
    63    20    19    1
    64    69    76   am
    65    69    68    1
    66    88    91    1
    67    88    87    1
    68    88    89    1
    69    67    68    1
    70    95    96    1
    71    95    89   am
    72    91    92    1
    73    78    79    2
    74    94    92    1
    75    96    99    1
    76    89    90    2
    77    68    71    1
    78    92    93    1
    79    19    22    1
    80    19    18    1
    81    99   100    1
    82    16    15    1
    83    22    23    1
    84    72    71    1
    85    72    73    1
    86    18    13   am
    87    14    13    2
    88    15    12    1
    89    15    17    1
    90    13    12    1
    91    73    75   am
    92    73    74    2
    93    23    25    1
    94    23    24    1
    95    12    11    1
    96   107   106    1
    97   107   101    1
    98   106   105    1
    99    11     9   am
   100   105   102    1
   101   101   102    1
   102   118   119    1
   103   118   117    1
   104   104   103    2
   105   119   120    2
   106   111   110    2
   107     9    10    2
   108     9     8    1
   109   102   103    1
   110   103   108   am
   111   117   110   am
   112   110   109    1
   113     7     8    1
   114   108   109    1
   115   109   112    1
   116   112   113    1
   117   113   114    1
   118   114   115   ar
   119   114   116   ar
