@<TRIPOS>MOLECULE
tmp/2g1aA00.pdb
 170 163 0 0 0
SMALL
GASTEIGER

@<TRIPOS>ATOM
      1  N         14.0840    0.4920   12.7670 N.3    41  ASP41      -0.1239
      2  CA        15.1280    1.4730   12.4620 C.3    41  ASP41       0.1674
      3  C         16.4310    0.6670   12.2280 C.2    41  ASP41       0.2266
      4  O         16.5040   -0.4930   12.6260 O.2    41  ASP41      -0.2867
      5  CB        15.2630    2.4790   13.6270 C.3    41  ASP41       0.1410
      6  CG        16.5280    3.3090   13.5390 C.2    41  ASP41       0.3668
      7  OD1       16.6790    4.0870   12.5520 O.co2  41  ASP41      -0.2456
      8  OD2       17.3700    3.2110   14.4750 O.co2  41  ASP41      -0.2456
      9  N         20.2270    2.0510   12.4230 N.3    43  ASP43      -0.1225
     10  CA        21.4270    2.4000   13.1780 C.3    43  ASP43       0.1805
     11  C         21.1580    2.4540   14.6820 C.2    43  ASP43       0.2597
     12  O         20.2040    3.0910   15.1290 O.2    43  ASP43      -0.2718
     13  CB        22.0340    3.7060   12.6270 C.3    43  ASP43       0.1424
     14  CG        22.3500    3.5950   11.1350 C.2    43  ASP43       0.3668
     15  OD1       23.1670    2.7430   10.7350 O.co2  43  ASP43      -0.2456
     16  OD2       21.7440    4.3300   10.3420 O.co2  43  ASP43      -0.2456
     17  N         22.0040    1.7580   15.4340 N.am   44  ASP44      -0.1974
     18  CA        21.8340    1.4930   16.8630 C.3    44  ASP44       0.1709
     19  C         20.5070    0.8020   17.2250 C.2    44  ASP44       0.2293
     20  O         20.1220    0.7720   18.3900 O.2    44  ASP44      -0.2864
     21  CB        22.0660    2.7450   17.7150 C.3    44  ASP44       0.1436
     22  CG        23.5470    3.0940   17.8540 C.2    44  ASP44       0.3671
     23  OD1       24.3520    2.1880   18.1990 O.co2  44  ASP44      -0.2456
     24  OD2       23.9090    4.2820   17.6470 O.co2  44  ASP44      -0.2456
     25  N         26.5490    0.6020   13.9180 N.3    49  SER49      -0.1202
     26  CA        27.1190    1.1090   12.6590 C.3    49  SER49       0.2020
     27  C         28.0500    2.2980   12.8710 C.2    49  SER49       0.2619
     28  O         28.5910    2.8470   11.9180 O.2    49  SER49      -0.2717
     29  CB        25.9970    1.4920   11.7040 C.3    49  SER49       0.2103
     30  OG        25.0960    2.4120   12.3350 O.3    49  SER49      -0.2182
     31  N         28.2280    2.6970   14.1250 N.am   50  SER50      -0.1951
     32  CA        29.2430    3.6890   14.5120 C.3    50  SER50       0.1924
     33  C         30.6240    3.5670   13.8600 C.2    50  SER50       0.2314
     34  O         31.2280    4.5950   13.5760 O.2    50  SER50      -0.2863
     35  CB        29.4280    3.6940   16.0280 C.3    50  SER50       0.2116
     36  OG        28.4430    4.4880   16.6240 O.3    50  SER50      -0.2180
     37  N         30.3810    5.3690   10.5760 N.3    53  PHE53      -0.1241
     38  CA        30.1290    6.7840   10.8590 C.3    53  PHE53       0.1605
     39  C         31.3590    7.4880   11.4470 C.2    53  PHE53       0.2264
     40  O         31.6560    8.6450   11.0790 O.2    53  PHE53      -0.2867
     41  CB        28.8980    6.9540   11.7510 C.3    53  PHE53       0.0534
     42  CG        27.6020    6.8290   11.0060 C.ar   53  PHE53      -0.0203
     43  CD1       26.9940    7.9600   10.4610 C.ar   53  PHE53      -0.0042
     44  CD2       26.9860    5.5720   10.8250 C.ar   53  PHE53      -0.0042
     45  CE1       25.7960    7.8530    9.7520 C.ar   53  PHE53      -0.0003
     46  CE2       25.7730    5.4560   10.1170 C.ar   53  PHE53      -0.0003
     47  CZ        25.1790    6.6060    9.5780 C.ar   53  PHE53      -0.0000
     48  N         30.0340   18.0910   11.5600 N.3    65  GLU65      -0.1245
     49  CA        29.0900   17.0530   11.2070 C.3    65  GLU65       0.1567
     50  C         28.7490   17.1070    9.7220 C.2    65  GLU65       0.2260
     51  O         27.7920   16.4680    9.2970 O.2    65  GLU65      -0.2867
     52  CB        27.8030   17.1750   12.0470 C.3    65  GLU65       0.0388
     53  CG        28.0050   17.3970   13.5550 C.3    65  GLU65       0.1160
     54  CD        28.6170   16.2100   14.2690 C.2    65  GLU65       0.3649
     55  OE1       28.3400   15.0670   13.8670 O.co2  65  GLU65      -0.2457
     56  OE2       29.3770   16.4220   15.2470 O.co2  65  GLU65      -0.2457
     57  N         30.0500   15.7230    7.2550 N.3    67  TYR67      -0.1227
     58  CA        30.1210   14.4230    6.5740 C.3    67  TYR67       0.1736
     59  C         28.7170   13.8420    6.3650 C.2    67  TYR67       0.2595
     60  O         28.4940   13.1120    5.4090 O.2    67  TYR67      -0.2718
     61  CB        31.0490   13.4260    7.3050 C.3    67  TYR67       0.0548
     62  CG        30.4710   12.7790    8.5590 C.ar   67  TYR67      -0.0200
     63  CD1       30.0750   11.4320    8.5580 C.ar   67  TYR67      -0.0009
     64  CD2       30.3490   13.4980    9.7520 C.ar   67  TYR67      -0.0009
     65  CE1       29.5760   10.8340    9.7060 C.ar   67  TYR67       0.0417
     66  CE2       29.8360   12.9030   10.9090 C.ar   67  TYR67       0.0417
     67  CZ        29.4540   11.5650   10.8720 C.ar   67  TYR67       0.1957
     68  OH        28.9260   10.9700   12.0080 O.3    67  TYR67      -0.2866
     69  N         27.7900   14.1810    7.2700 N.am   68  LEU68      -0.1980
     70  CA        26.3980   13.7060    7.2190 C.3    68  LEU68       0.1596
     71  C         25.5960   14.3350    6.0880 C.2    68  LEU68       0.2287
     72  O         24.5320   13.8390    5.7380 O.2    68  LEU68      -0.2864
     73  CB        25.7000   13.9120    8.5750 C.3    68  LEU68       0.0297
     74  CG        26.2990   13.0660    9.7060 C.3    68  LEU68       0.0022
     75  CD1       25.9190   13.5760   11.0890 C.3    68  LEU68       0.0001
     76  CD2       25.9730   11.5730    9.5260 C.3    68  LEU68       0.0001
     77  N         27.9910    9.0820    2.1270 N.3    74  TRP74      -0.1241
     78  CA        26.8660    8.1520    2.0410 C.3    74  TRP74       0.1605
     79  C         27.0970    7.0270    1.0390 C.2    74  TRP74       0.2264
     80  O         26.7670    5.8730    1.3140 O.2    74  TRP74      -0.2867
     81  CB        25.5650    8.8990    1.7640 C.3    74  TRP74       0.0550
     82  CG        25.1750    9.7440    2.9060 C.ar   74  TRP74       0.0003
     83  CD1       25.1370   11.1160    2.9460 C.ar   74  TRP74       0.0946
     84  CD2       24.7710    9.2890    4.2000 C.ar   74  TRP74       0.0152
     85  NE1       24.7140   11.5360    4.1780 N.ar   74  TRP74      -0.2442
     86  CE2       24.4900   10.4350    4.9720 C.ar   74  TRP74       0.0810
     87  CE3       24.5880    8.0190    4.7710 C.ar   74  TRP74       0.0012
     88  CZ2       24.0570   10.3550    6.2940 C.ar   74  TRP74       0.0191
     89  CZ3       24.1530    7.9450    6.1030 C.ar   74  TRP74       0.0001
     90  CH2       23.8970    9.1030    6.8390 C.ar   74  TRP74       0.0015
     91  N         14.9930    3.7550    7.3180 N.3   109  THR109     -0.1203
     92  CA        16.1720    4.4830    7.7200 C.3   109  THR109      0.1994
     93  C         16.1140    5.9530    7.3200 C.2   109  THR109      0.2618
     94  O         15.5720    6.3010    6.2760 O.2   109  THR109     -0.2717
     95  CB        17.4530    3.8220    7.1340 C.3   109  THR109      0.1784
     96  OG1       18.6060    4.4960    7.6310 O.3   109  THR109     -0.2211
     97  CG2       17.4480    3.8720    5.6130 C.3   109  THR109      0.0376
     98  N         16.6870    6.7980    8.1770 N.am  110  GLY110     -0.1942
     99  CA        16.8890    8.2110    7.8710 C.3   110  GLY110      0.2014
    100  C         18.2250    8.5230    7.2110 C.2   110  GLY110      0.2638
    101  O         18.5330    9.6800    6.9840 O.2   110  GLY110     -0.2714
    102  N         19.0330    7.4990    6.9290 N.am  111  ARG111     -0.1977
    103  CA        20.2680    7.6480    6.1390 C.3   111  ARG111      0.1597
    104  C         19.9540    8.3030    4.7860 C.2   111  ARG111      0.2287
    105  O         18.8940    8.0700    4.2390 O.2   111  ARG111     -0.2864
    106  CB        20.8650    6.2750    5.8240 C.3   111  ARG111      0.0334
    107  CG        21.5690    5.5810    6.9840 C.3   111  ARG111      0.0492
    108  CD        22.2870    4.3640    6.4750 C.3   111  ARG111      0.2205
    109  NE        22.8990    3.5470    7.5350 N.pl3 111  ARG111     -0.0865
    110  CZ        23.8060    2.6000    7.2970 C.cat 111  ARG111      0.5346
    111  NH1       24.2360    2.3820    6.0470 N.pl3 111  ARG111      0.1354
    112  NH2       24.2750    1.8640    8.2950 N.pl3 111  ARG111      0.1354
    113  N          9.4310    8.9360    7.8940 N.3   149  LYS149     -0.1245
    114  CA         9.2960    7.6430    8.5610 C.3   149  LYS149      0.1561
    115  C          7.8410    7.3120    8.8620 C.2   149  LYS149      0.2260
    116  O          7.4300    6.1990    8.6440 O.2   149  LYS149     -0.2867
    117  CB        10.1420    7.5530    9.8430 C.3   149  LYS149      0.0271
    118  CG        11.6470    7.2900    9.5820 C.3   149  LYS149      0.0035
    119  CD        12.3540    6.6680   10.7840 C.3   149  LYS149      0.0206
    120  CE        13.8530    6.5470   10.5100 C.3   149  LYS149      0.1093
    121  NZ        14.5790    5.5890   11.4070 N.3   149  LYS149     -0.1314
    122  N         15.8520    3.3110   18.3540 N.3   164  ASP164     -0.1225
    123  CA        16.5910    3.8290   19.5030 C.3   164  ASP164      0.1805
    124  C         16.3610    5.3480   19.7180 C.2   164  ASP164      0.2598
    125  O         16.5430    5.8500   20.8300 O.2   164  ASP164     -0.2718
    126  CB        18.1020    3.5470   19.3280 C.3   164  ASP164      0.1424
    127  CG        18.6840    4.3080   18.1730 C.2   164  ASP164      0.3668
    128  OD1       18.1370    4.0920   17.0750 O.co2 164  ASP164     -0.2456
    129  OD2       19.6030    5.1680   18.3660 O.co2 164  ASP164     -0.2456
    130  N         15.9910    6.0660   18.6600 N.am  165  SER165     -0.1952
    131  CA        15.8460    7.5220   18.7340 C.3   165  SER165      0.1924
    132  C         14.4200    7.9400   19.1020 C.2   165  SER165      0.2314
    133  O         13.4620    7.1810   18.8630 O.2   165  SER165     -0.2863
    134  CB        16.2410    8.1620   17.4010 C.3   165  SER165      0.2116
    135  OG        17.6200    7.9760   17.0990 O.3   165  SER165     -0.2180
    136  N         12.6620   10.0490   17.5870 N.3   167  ASN167     -0.1225
    137  CA        11.9160   10.1840   16.3250 C.3   167  ASN167      0.1785
    138  C         11.3300    8.9020   15.7780 C.2   167  ASN167      0.2597
    139  O         10.3770    8.9340   15.0060 O.2   167  ASN167     -0.2718
    140  CB        12.7530   10.8890   15.2280 C.3   167  ASN167      0.1169
    141  CG        14.0940   10.1760   14.8870 C.2   167  ASN167      0.2627
    142  OD1       14.1390    9.0060   14.4380 O.2   167  ASN167     -0.2716
    143  ND2       15.1940   10.9340   15.0150 N.am  167  ASN167     -0.0877
    144  N         11.9150    7.7720   16.1640 N.am  168  ASP168     -0.1974
    145  CA        11.3650    6.4720   15.8120 C.3   168  ASP168      0.1709
    146  C         10.0910    6.2170   16.5930 C.2   168  ASP168      0.2293
    147  O          9.1270    5.6760   16.0410 O.2   168  ASP168     -0.2864
    148  CB        12.3780    5.3630   16.1150 C.3   168  ASP168      0.1436
    149  CG        13.6820    5.5420   15.3680 C.2   168  ASP168      0.3671
    150  OD1       13.6080    5.8780   14.1830 O.co2 168  ASP168     -0.2456
    151  OD2       14.7800    5.3440   15.9660 O.co2 168  ASP168     -0.2456
    152  N         28.9280    6.5060   18.5710 N.3   189  THR189     -0.1203
    153  CA        29.4540    7.8490   18.3200 C.3   189  THR189      0.1994
    154  C         28.3160    8.8600   18.0970 C.2   189  THR189      0.2617
    155  O         28.5520   10.0570   17.9350 O.2   189  THR189     -0.2717
    156  CB        30.4200    7.8800   17.1180 C.3   189  THR189      0.1784
    157  OG1       29.7120    7.5510   15.9210 O.3   189  THR189     -0.2211
    158  CG2       31.5560    6.9120   17.3070 C.3   189  THR189      0.0376
    159  N         27.0830    8.3670   18.0760 N.am  190  TYR190     -0.1975
    160  CA        25.9100    9.2400   17.9740 C.3   190  TYR190      0.1639
    161  C         25.5290    9.6810   19.3880 C.2   190  TYR190      0.2290
    162  O         24.8900    8.9190   20.1290 O.2   190  TYR190     -0.2864
    163  CB        24.7730    8.4680   17.3020 C.3   190  TYR190      0.0560
    164  CG        23.5840    9.2620   16.7560 C.ar  190  TYR190     -0.0198
    165  CD1       23.6300   10.6460   16.6180 C.ar  190  TYR190     -0.0009
    166  CD2       22.4220    8.6020   16.3470 C.ar  190  TYR190     -0.0009
    167  CE1       22.5530   11.3550   16.1090 C.ar  190  TYR190      0.0417
    168  CE2       21.3200    9.3100   15.8250 C.ar  190  TYR190      0.0417
    169  CZ        21.4030   10.6760   15.7120 C.ar  190  TYR190      0.1957
    170  OH        20.3430   11.3740   15.2080 O.3   190  TYR190     -0.2866
@<TRIPOS>BOND
     1    79    80    2
     2    79    78    1
     3    81    78    1
     4    81    82    1
     5    78    77    1
     6    82    83   ar
     7    82    84   ar
     8    83    85   ar
     9    85    86   ar
    10    84    87   ar
    11    84    86   ar
    12   105   104    2
    13    87    89   ar
    14   104   103    1
    15    86    88   ar
    16    60    59    2
    17    97    95    1
    18    72    71    2
    19   106   103    1
    20   106   107    1
    21   111   110    1
    22    71    70    1
    23    89    90   ar
    24   103   102    1
    25    94    93    2
    26    88    90   ar
    27    59    58    1
    28    59    69   am
    29   108   107    1
    30   108   109    1
    31    58    57    1
    32    58    61    1
    33   102   100   am
    34   101   100    2
    35    95    96    1
    36    95    92    1
    37   100    99    1
    38    70    69    1
    39    70    73    1
    40   110   109    2
    41   110   112    1
    42    61    62    1
    43    91    92    1
    44    93    92    1
    45    93    98   am
    46    99    98    1
    47   113   114    1
    48    63    62   ar
    49    63    65   ar
    50    62    64   ar
    51   114   115    1
    52   114   117    1
    53    73    74    1
    54   116   115    2
    55    51    50    2
    56    76    74    1
    57    47    45   ar
    58    47    46   ar
    59   118   117    1
    60   118   119    1
    61    65    67   ar
    62    74    75    1
    63    50    49    1
    64    64    66   ar
    65    45    43   ar
    66    46    44   ar
    67    16    14   ar
    68    43    42   ar
    69   120   119    1
    70   120   121    1
    71    37    38    1
    72    15    14   ar
    73    44    42   ar
    74    38    39    1
    75    38    41    1
    76    67    66   ar
    77    67    68    1
    78    42    41    1
    79    40    39    2
    80    14    13    1
    81    49    48    1
    82    49    52    1
    83    29    30    1
    84    29    26    1
    85    28    27    2
    86    52    53    1
    87     3     2    1
    88     3     4    2
    89     9    10    1
    90     2     1    1
    91     2     5    1
    92     7     6   ar
    93    13    10    1
    94    26    27    1
    95    26    25    1
    96    27    31   am
    97    10    11    1
    98     6     5    1
    99     6     8   ar
   100    53    54    1
   101    34    33    2
   102    33    32    1
   103    55    54   ar
   104    31    32    1
   105   150   149   ar
   106    54    56   ar
   107   142   141    2
   108    32    35    1
   109    11    12    2
   110    11    17   am
   111   141   143   am
   112   141   140    1
   113   139   138    2
   114   170   169    1
   115   140   137    1
   116   149   151   ar
   117   149   148    1
   118    17    18    1
   119   169   168   ar
   120   169   167   ar
   121   138   144   am
   122   138   137    1
   123   145   148    1
   124   145   144    1
   125   145   146    1
   126   168   166   ar
   127   157   156    1
   128    35    36    1
   129   147   146    2
   130   167   165   ar
   131   137   136    1
   132   166   164   ar
   133   165   164   ar
   134   164   163    1
   135    18    19    1
   136    18    21    1
   137   128   127   ar
   138   135   134    1
   139   156   158    1
   140   156   153    1
   141    19    20    2
   142   163   160    1
   143   134   131    1
   144    24    22   ar
   145    21    22    1
   146    22    23   ar
   147   155   154    2
   148   160   159    1
   149   160   161    1
   150   159   154   am
   151   154   153    1
   152   127   129   ar
   153   127   126    1
   154   153   152    1
   155   122   123    1
   156   130   131    1
   157   130   124   am
   158   131   132    1
   159   133   132    2
   160   126   123    1
   161   161   162    2
   162   123   124    1
   163   124   125    2
