@<TRIPOS>MOLECULE
tmp/2g1mA00.pdb
 173 161 0 0 0
SMALL
GASTEIGER

@<TRIPOS>ATOM
      1  N         48.8060   12.0850   10.6990 N.3    52  GLN52      -0.1245
      2  CA        49.4770   12.8010   11.7600 C.3    52  GLN52       0.1566
      3  C         50.0990   11.8280   12.7270 C.2    52  GLN52       0.2260
      4  O         49.4200   10.9530   13.2470 O.2    52  GLN52      -0.2867
      5  CB        48.5020   13.6970   12.5280 C.3    52  GLN52       0.0367
      6  CG        49.1970   14.4150   13.6640 C.3    52  GLN52       0.0905
      7  CD        48.3530   15.4890   14.2970 C.2    52  GLN52       0.2608
      8  OE1       48.8170   16.2120   15.1740 O.2    52  GLN52      -0.2717
      9  NE2       47.1060   15.6030   13.8580 N.am   52  GLN52      -0.0878
     10  N         44.8600   11.3000   11.6440 N.3    62  ASP62      -0.1239
     11  CA        44.2910   11.9270   10.4580 C.3    62  ASP62       0.1674
     12  C         45.2530   12.0910    9.3040 C.2    62  ASP62       0.2266
     13  O         46.3590   12.5800    9.4830 O.2    62  ASP62      -0.2867
     14  CB        43.7110   13.3060   10.7850 C.3    62  ASP62       0.1410
     15  CG        44.7830   14.3390   11.1040 C.2    62  ASP62       0.3668
     16  OD1       45.2590   14.3930   12.2620 O.co2  62  ASP62      -0.2456
     17  OD2       45.1540   15.1190   10.1990 O.co2  62  ASP62      -0.2456
     18  N         45.6780   13.6980    5.3550 N.3    64  ILE64      -0.1245
     19  CA        45.1170   14.8100    4.6090 C.3    64  ILE64       0.1561
     20  C         45.6520   14.8870    3.2000 C.2    64  ILE64       0.2260
     21  O         46.6430   14.2560    2.8410 O.2    64  ILE64      -0.2867
     22  CB        45.4460   16.1940    5.2530 C.3    64  ILE64       0.0252
     23  CG1       46.9590   16.3540    5.3810 C.3    64  ILE64       0.0019
     24  CG2       44.8230   16.3250    6.6160 C.3    64  ILE64       0.0019
     25  CD1       47.3810   17.7260    5.8390 C.3    64  ILE64       0.0001
     26  N         40.8030   21.1320    2.2350 N.3   107  MET107     -0.1245
     27  CA        41.5750   20.1390    2.9510 C.3   107  MET107      0.1570
     28  C         40.6760   18.9420    3.1720 C.2   107  MET107      0.2261
     29  O         39.6400   19.0390    3.8210 O.2   107  MET107     -0.2867
     30  CB        42.0610   20.6550    4.2960 C.3   107  MET107      0.0387
     31  CG        42.8710   19.6180    5.0580 C.3   107  MET107      0.0595
     32  SD        43.3720   20.2120    6.6800 S.3   107  MET107     -0.1393
     33  CE        41.8660   19.9440    7.6590 C.3   107  MET107      0.0692
     34  N         40.1670   15.5630    4.9230 N.3   109  ALA109     -0.1245
     35  CA        40.7310   14.8410    6.0200 C.3   109  ALA109      0.1562
     36  C         40.1060   13.4720    6.1050 C.2   109  ALA109      0.2260
     37  O         38.9300   13.3080    5.7830 O.2   109  ALA109     -0.2867
     38  CB        40.4920   15.5830    7.2960 C.3   109  ALA109      0.0290
     39  N         40.1120   10.3390    9.0310 N.3   111  TYR111     -0.1241
     40  CA        40.5270    9.6830   10.2540 C.3   111  TYR111      0.1605
     41  C         40.2940    8.2180    9.9040 C.2   111  TYR111      0.2264
     42  O         39.1640    7.7950    9.7680 O.2   111  TYR111     -0.2867
     43  CB        39.6580   10.1310   11.4060 C.3   111  TYR111      0.0534
     44  CG        39.9060   11.5710   11.7540 C.ar  111  TYR111     -0.0201
     45  CD1       40.6370   11.9100   12.8850 C.ar  111  TYR111     -0.0009
     46  CD2       39.4590   12.5880   10.9210 C.ar  111  TYR111     -0.0009
     47  CE1       40.9260   13.2320   13.1800 C.ar  111  TYR111      0.0417
     48  CE2       39.7360   13.9230   11.1990 C.ar  111  TYR111      0.0417
     49  CZ        40.4660   14.2400   12.3250 C.ar  111  TYR111      0.1957
     50  OH        40.7110   15.5620   12.5920 O.3   111  TYR111     -0.2866
     51  N         41.4720   14.0540   17.2400 N.3   118  TYR118     -0.1241
     52  CA        42.2670   15.2560   17.0360 C.3   118  TYR118      0.1605
     53  C         42.1500   16.0900   18.2600 C.2   118  TYR118      0.2264
     54  O         41.0420   16.4550   18.6280 O.2   118  TYR118     -0.2867
     55  CB        41.7410   16.0770   15.8530 C.3   118  TYR118      0.0534
     56  CG        42.7260   17.0820   15.3410 C.ar  118  TYR118     -0.0201
     57  CD1       43.5090   16.7900   14.2210 C.ar  118  TYR118     -0.0009
     58  CD2       42.9210   18.3110   15.9810 C.ar  118  TYR118     -0.0009
     59  CE1       44.4680   17.7020   13.7500 C.ar  118  TYR118      0.0417
     60  CE2       43.9110   19.2320   15.4980 C.ar  118  TYR118      0.0417
     61  CZ        44.6650   18.9180   14.3950 C.ar  118  TYR118      0.1957
     62  OH        45.6360   19.8050   13.9300 O.3   118  TYR118     -0.2866
     63  N         41.5170   22.1330   19.9300 N.3   121  HIS121     -0.1241
     64  CA        42.3310   23.2180   19.3460 C.3   121  HIS121      0.1621
     65  C         41.5010   24.3730   18.8220 C.2   121  HIS121      0.2264
     66  O         40.2770   24.3410   18.8430 O.2   121  HIS121     -0.2867
     67  CB        43.1480   22.6810   18.1840 C.3   121  HIS121      0.0745
     68  CG        42.3110   22.2630   17.0250 C.ar  121  HIS121      0.0817
     69  ND1       41.4540   21.1820   17.0760 N.ar  121  HIS121     -0.2268
     70  CD2       42.2020   22.7720   15.7760 C.ar  121  HIS121      0.1154
     71  CE1       40.8640   21.0360   15.9010 C.ar  121  HIS121      0.1986
     72  NE2       41.3000   21.9860   15.0950 N.ar  121  HIS121     -0.2212
     73  N         41.3210   26.7180   15.3860 N.3   123  ASP123     -0.1239
     74  CA        41.8070   26.7360   14.0230 C.3   123  ASP123      0.1674
     75  C         42.7480   27.9190   13.7900 C.2   123  ASP123      0.2266
     76  O         43.8570   27.7490   13.2760 O.2   123  ASP123     -0.2867
     77  CB        40.6430   26.8000   13.0160 C.3   123  ASP123      0.1410
     78  CG        39.9660   25.4430   12.7710 C.2   123  ASP123      0.3668
     79  OD1       39.0150   25.4100   11.9540 O.co2 123  ASP123     -0.2456
     80  OD2       40.3570   24.4160   13.3730 O.co2 123  ASP123     -0.2456
     81  N         41.9610   33.7320    8.7780 N.3   130  ARG130     -0.1245
     82  CA        40.7750   32.8870    8.6430 C.3   130  ARG130      0.1563
     83  C         39.7070   33.2820    9.6250 C.2   130  ARG130      0.2260
     84  O         39.9330   33.2760   10.8170 O.2   130  ARG130     -0.2867
     85  CB        41.1700   31.4260    8.8410 C.3   130  ARG130      0.0307
     86  CG        42.1310   30.9770    7.7720 C.3   130  ARG130      0.0489
     87  CD        42.6490   29.5850    8.0110 C.3   130  ARG130      0.2205
     88  NE        43.5490   29.5670    9.1550 N.pl3 130  ARG130     -0.0865
     89  CZ        44.0490   28.4750    9.7030 C.cat 130  ARG130      0.5346
     90  NH1       43.7510   27.2890    9.2110 N.pl3 130  ARG130      0.1354
     91  NH2       44.8230   28.5800   10.7670 N.pl3 130  ARG130      0.1354
     92  N         33.0220   23.0630    6.9020 N.3   135  ILE135     -0.1245
     93  CA        33.3230   21.6580    6.7660 C.3   135  ILE135      0.1561
     94  C         32.1610   20.8750    6.1920 C.2   135  ILE135      0.2260
     95  O         31.0310   21.0210    6.6340 O.2   135  ILE135     -0.2867
     96  CB        33.6840   21.0450    8.1400 C.3   135  ILE135      0.0252
     97  CG1       34.8290   21.8260    8.7930 C.3   135  ILE135      0.0019
     98  CG2       34.0730   19.5740    7.9670 C.3   135  ILE135      0.0019
     99  CD1       35.2520   21.2410   10.1700 C.3   135  ILE135      0.0001
    100  N         30.7720   16.9840    5.4930 N.3   137  TYR137     -0.1241
    101  CA        30.8970   15.5570    5.8590 C.3   137  TYR137      0.1605
    102  C         30.2340   14.6030    4.8350 C.2   137  TYR137      0.2264
    103  O         29.1390   14.8540    4.3270 O.2   137  TYR137     -0.2867
    104  CB        30.3070   15.3250    7.2580 C.3   137  TYR137      0.0534
    105  CG        30.9670   16.1460    8.3480 C.ar  137  TYR137     -0.0201
    106  CD1       32.2160   15.8120    8.8600 C.ar  137  TYR137     -0.0009
    107  CD2       30.3240   17.2400    8.8670 C.ar  137  TYR137     -0.0009
    108  CE1       32.7980   16.5310    9.8710 C.ar  137  TYR137      0.0417
    109  CE2       30.8860   17.9990    9.8680 C.ar  137  TYR137      0.0417
    110  CZ        32.1200   17.6310   10.3690 C.ar  137  TYR137      0.1957
    111  OH        32.6600   18.3860   11.3500 O.3   137  TYR137     -0.2866
    112  N         32.4020   15.6650   16.6220 N.3   151  LEU151     -0.1245
    113  CA        33.1580   16.9110   16.6660 C.3   151  LEU151      0.1561
    114  C         32.5660   17.7260   17.7780 C.2   151  LEU151      0.2260
    115  O         31.4070   18.1340   17.7000 O.2   151  LEU151     -0.2867
    116  CB        33.0190   17.6960   15.3550 C.3   151  LEU151      0.0270
    117  CG        33.3670   19.1960   15.4020 C.3   151  LEU151      0.0019
    118  CD1       34.8090   19.3620   15.8360 C.3   151  LEU151      0.0001
    119  CD2       33.1410   19.8500   14.0290 C.3   151  LEU151      0.0001
    120  N         37.8460   23.3640   19.6180 N.3   182  HIS182     -0.1241
    121  CA        37.1510   22.0950   19.3150 C.3   182  HIS182      0.1621
    122  C         38.0600   20.8940   19.2210 C.2   182  HIS182      0.2264
    123  O         39.2760   21.0090   19.2030 O.2   182  HIS182     -0.2867
    124  CB        36.3490   22.1950   17.9870 C.3   182  HIS182      0.0745
    125  CG        37.1390   22.7600   16.8270 C.ar  182  HIS182      0.0817
    126  ND1       37.5400   24.0770   16.7800 N.ar  182  HIS182     -0.2268
    127  CD2       37.6340   22.1800   15.7070 C.ar  182  HIS182      0.1154
    128  CE1       38.2580   24.2910   15.6820 C.ar  182  HIS182      0.1986
    129  NE2       38.3290   23.1530   15.0120 N.ar  182  HIS182     -0.2212
    130  N         38.2150   16.5310   17.7310 N.3   184  VAL184     -0.1245
    131  CA        37.5630   15.4270   17.0820 C.3   184  VAL184      0.1561
    132  C         37.7490   14.1330   17.9190 C.2   184  VAL184      0.2260
    133  O         38.8590   13.5980   18.0200 O.2   184  VAL184     -0.2867
    134  CB        38.0820   15.1730   15.6830 C.3   184  VAL184      0.0252
    135  CG1       37.4660   13.9160   15.2120 C.3   184  VAL184      0.0019
    136  CG2       37.7080   16.3110   14.7330 C.3   184  VAL184      0.0019
    137  N         36.3720    8.0250    8.6060 N.3   191  ARG191     -0.1245
    138  CA        35.6310    9.2760    8.7380 C.3   191  ARG191      0.1563
    139  C         36.2120   10.3020    7.7910 C.2   191  ARG191      0.2260
    140  O         37.3520   10.7370    7.9910 O.2   191  ARG191     -0.2867
    141  CB        35.7610    9.7880   10.1660 C.3   191  ARG191      0.0307
    142  CG        34.9620   11.0120   10.4820 C.3   191  ARG191      0.0489
    143  CD        35.3640   11.4290   11.8640 C.3   191  ARG191      0.2205
    144  NE        34.7290   12.6380   12.3980 N.pl3 191  ARG191     -0.0865
    145  CZ        35.0480   13.8730   12.0660 C.cat 191  ARG191      0.5346
    146  NH1       35.9810   14.1060   11.1660 N.pl3 191  ARG191      0.1354
    147  NH2       34.5060   14.8800   12.7230 N.pl3 191  ARG191      0.1354
    148  N         36.1180   14.1350    5.8540 N.3   193  ALA193     -0.1245
    149  CA        35.5790   15.4760    5.9970 C.3   193  ALA193      0.1562
    150  C         36.3330   16.3490    5.0160 C.2   193  ALA193      0.2260
    151  O         37.4660   16.0550    4.6820 O.2   193  ALA193     -0.2867
    152  CB        35.7650   16.0040    7.4200 C.3   193  ALA193      0.0290
    153  N         37.3520   20.3760    4.4510 N.3   195  THR195     -0.1218
    154  CA        37.3290   21.6870    5.0980 C.3   195  THR195      0.1862
    155  C         37.8840   22.8120    4.2250 C.2   195  THR195      0.2287
    156  O         38.8700   22.6470    3.5210 O.2   195  THR195     -0.2866
    157  CB        38.1700   21.6870    6.3870 C.3   195  THR195      0.1770
    158  OG1       37.6180   20.7610    7.3350 O.3   195  THR195     -0.2211
    159  CG2       38.1900   23.0580    6.9510 C.3   195  THR195      0.0375
    160  N         38.6300   27.1500    4.6360 N.3   197  TRP197     -0.1241
    161  CA        38.6640   28.3090    5.5250 C.3   197  TRP197      0.1605
    162  C         38.5680   29.5740    4.6670 C.2   197  TRP197      0.2264
    163  O         39.2110   29.6890    3.6280 O.2   197  TRP197     -0.2867
    164  CB        39.9720   28.3330    6.3120 C.3   197  TRP197      0.0550
    165  CG        40.0760   27.2850    7.3730 C.ar  197  TRP197      0.0003
    166  CD1       39.5900   27.3500    8.6370 C.ar  197  TRP197      0.0946
    167  CD2       40.7830   26.0530    7.2760 C.ar  197  TRP197      0.0152
    168  NE1       39.9650   26.2160    9.3660 N.ar  197  TRP197     -0.2442
    169  CE2       40.6860   25.4050    8.5420 C.ar  197  TRP197      0.0810
    170  CE3       41.4980   25.4200    6.2560 C.ar  197  TRP197      0.0012
    171  CZ2       41.2520   24.1650    8.7820 C.ar  197  TRP197      0.0191
    172  CZ3       42.0850   24.1810    6.5170 C.ar  197  TRP197      0.0001
    173  CH2       41.9410   23.5700    7.7620 C.ar  197  TRP197      0.0015
@<TRIPOS>BOND
     1    26    27    1
     2    21    20    2
     3    27    28    1
     4    27    30    1
     5    28    29    2
     6    20    19    1
     7   156   155    2
     8   163   162    2
     9   155   154    1
    10    30    31    1
    11   103   102    2
    12   153   154    1
    13    19    22    1
    14    19    18    1
    15   160   161    1
    16   162   161    1
    17   151   150    2
    18   102   101    1
    19    34    35    1
    20   150   149    1
    21    31    32    1
    22   154   157    1
    23    22    23    1
    24    22    24    1
    25    23    25    1
    26   100   101    1
    27   161   164    1
    28    37    36    2
    29   148   149    1
    30   101   104    1
    31   149   152    1
    32    35    36    1
    33    35    38    1
    34    94    95    2
    35    94    93    1
    36   170   172   ar
    37   170   167   ar
    38   164   165    1
    39   157   159    1
    40   157   158    1
    41   172   173   ar
    42    32    33    1
    43    93    92    1
    44    93    96    1
    45   104   105    1
    46   167   165   ar
    47   167   169   ar
    48   165   166   ar
    49   173   171   ar
    50    86    87    1
    51    86    85    1
    52   139   140    2
    53   139   138    1
    54    98    96    1
    55    87    88    1
    56    96    97    1
    57   105   106   ar
    58   105   107   ar
    59   169   171   ar
    60   169   168   ar
    61   137   138    1
    62   166   168   ar
    63    82    81    1
    64    82    85    1
    65    82    83    1
    66   138   141    1
    67    97    99    1
    68   106   108   ar
    69   107   109   ar
    70    39    40    1
    71    88    89    2
    72    90    89    1
    73    12    13    2
    74    12    11    1
    75    83    84    2
    76    89    91    1
    77    42    41    2
    78   109   110   ar
    79   108   110   ar
    80    41    40    1
    81   141   142    1
    82    17    15   ar
    83    40    43    1
    84   110   111    1
    85    11    14    1
    86    11    10    1
    87   142   143    1
    88     1     2    1
    89    14    15    1
    90    46    48   ar
    91    46    44   ar
    92    15    16   ar
    93   146   145    1
    94    48    49   ar
    95    43    44    1
    96    44    45   ar
    97     2     5    1
    98     2     3    1
    99   143   144    1
   100    79    78   ar
   101   145   144    2
   102   145   147    1
   103    49    50    1
   104    49    47   ar
   105     5     6    1
   106     3     4    2
   107    78    77    1
   108    78    80   ar
   109    45    47   ar
   110    77    74    1
   111    76    75    2
   112     6     7    1
   113    59    57   ar
   114    59    61   ar
   115    75    74    1
   116     9     7   am
   117    62    61    1
   118    74    73    1
   119   119   117    1
   120    57    56   ar
   121     7     8    2
   122    61    60   ar
   123   136   134    1
   124   129   128   ar
   125   129   127   ar
   126    72    70   ar
   127    72    71   ar
   128   135   134    1
   129    56    55    1
   130    56    58   ar
   131   116   117    1
   132   116   113    1
   133   117   118    1
   134    60    58   ar
   135   128   126   ar
   136   134   131    1
   137   127   125   ar
   138    70    68   ar
   139    55    52    1
   140    71    69   ar
   141   112   113    1
   142   113   114    1
   143   126   125   ar
   144   125   124    1
   145    68    69   ar
   146    68    67    1
   147    52    51    1
   148    52    53    1
   149   131   130    1
   150   131   132    1
   151   115   114    2
   152   132   133    2
   153   124   121    1
   154    67    64    1
   155    53    54    2
   156    65    66    2
   157    65    64    1
   158   123   122    2
   159   122   121    1
   160   121   120    1
   161    64    63    1
