@<TRIPOS>MOLECULE
tmp/2g1nA01.pdb
 180 173 0 0 0
SMALL
GASTEIGER

@<TRIPOS>ATOM
      1  N         28.3410   66.6510   89.5360 N.3    11  THR11      -0.1203
      2  CA        27.7550   66.7970   88.2220 C.3    11  THR11       0.1994
      3  C         26.8820   68.0220   88.0950 C.2    11  THR11       0.2618
      4  O         26.3720   68.2980   87.0220 O.2    11  THR11      -0.2717
      5  CB        26.8940   65.5970   87.8400 C.3    11  THR11       0.1784
      6  OG1       25.7160   65.5980   88.6480 O.3    11  THR11      -0.2211
      7  CG2       27.6600   64.2960   88.0310 C.3    11  THR11       0.0376
      8  N         26.6890   68.7550   89.1810 N.am   12  GLN12      -0.1965
      9  CA        25.8700   69.9580   89.1120 C.3    12  GLN12       0.1733
     10  C         26.2980   71.0190   90.1100 C.2    12  GLN12       0.2616
     11  O         26.1590   70.8290   91.3210 O.2    12  GLN12      -0.2715
     12  CB        24.3990   69.6160   89.3340 C.3    12  GLN12       0.0408
     13  CG        23.7500   68.9210   88.1720 C.3    12  GLN12       0.0908
     14  CD        22.3650   68.4300   88.5100 C.2    12  GLN12       0.2608
     15  OE1       21.5690   69.1640   89.0930 O.2    12  GLN12      -0.2717
     16  NE2       22.0630   67.1850   88.1410 N.am   12  GLN12      -0.0878
     17  N         26.8240   72.1320   89.5960 N.am   13  TYR13      -0.1974
     18  CA        27.2600   73.2480   90.4300 C.3    13  TYR13       0.1639
     19  C         26.4160   74.4600   90.1050 C.2    13  TYR13       0.2290
     20  O         26.3270   74.8670   88.9510 O.2    13  TYR13      -0.2864
     21  CB        28.7280   73.5820   90.1750 C.3    13  TYR13       0.0560
     22  CG        29.6710   72.4560   90.5050 C.ar   13  TYR13      -0.0198
     23  CD1       29.8600   71.4090   89.6230 C.ar   13  TYR13      -0.0009
     24  CD2       30.3630   72.4290   91.7130 C.ar   13  TYR13      -0.0009
     25  CE1       30.7150   70.3590   89.9330 C.ar   13  TYR13       0.0417
     26  CE2       31.2230   71.3820   92.0330 C.ar   13  TYR13       0.0417
     27  CZ        31.3920   70.3460   91.1360 C.ar   13  TYR13       0.1957
     28  OH        32.2230   69.2850   91.4290 O.3    13  TYR13      -0.2866
     29  N         22.8560   77.5820   87.3420 N.3    29  VAL29      -0.1245
     30  CA        24.2390   77.2520   87.0090 C.3    29  VAL29       0.1561
     31  C         24.8230   78.4000   86.1940 C.2    29  VAL29       0.2260
     32  O         24.1060   79.0910   85.4680 O.2    29  VAL29      -0.2867
     33  CB        24.3470   75.9820   86.1560 C.3    29  VAL29       0.0252
     34  CG1       25.8000   75.6370   85.9480 C.3    29  VAL29       0.0019
     35  CG2       23.6340   74.8430   86.8180 C.3    29  VAL29       0.0019
     36  N         26.9150   78.8850   83.3620 N.3    31  ASP31      -0.1239
     37  CA        27.3360   78.2210   82.1380 C.3    31  ASP31       0.1674
     38  C         28.1700   79.0510   81.1520 C.2    31  ASP31       0.2266
     39  O         27.6360   79.9120   80.4520 O.2    31  ASP31      -0.2867
     40  CB        26.0460   77.7320   81.4670 C.3    31  ASP31       0.1410
     41  CG        26.2800   76.8570   80.2770 C.2    31  ASP31       0.3668
     42  OD1       25.3120   76.6850   79.5190 O.co2  31  ASP31      -0.2456
     43  OD2       27.3930   76.3300   80.0990 O.co2  31  ASP31      -0.2456
     44  N         29.2370   77.8580   78.7510 N.3    33  GLY33      -0.1225
     45  CA        28.8400   77.2140   77.5090 C.3    33  GLY33       0.1811
     46  C         27.6050   77.7640   76.8060 C.2    33  GLY33       0.2280
     47  O         27.3380   77.3850   75.6750 O.2    33  GLY33      -0.2866
     48  N         20.3280   72.6390   74.3910 N.3    76  TYR76      -0.1227
     49  CA        21.5560   72.2060   75.0520 C.3    76  TYR76       0.1736
     50  C         21.9050   70.8150   74.5700 C.2    76  TYR76       0.2596
     51  O         21.0620   70.1200   74.0080 O.2    76  TYR76      -0.2718
     52  CB        21.3840   72.1780   76.5740 C.3    76  TYR76       0.0548
     53  CG        21.1270   73.5290   77.1800 C.ar   76  TYR76      -0.0200
     54  CD1       19.8490   73.9480   77.4520 C.ar   76  TYR76      -0.0009
     55  CD2       22.1690   74.4040   77.4380 C.ar   76  TYR76      -0.0009
     56  CE1       19.6070   75.2000   77.9620 C.ar   76  TYR76       0.0417
     57  CE2       21.9360   75.6530   77.9440 C.ar   76  TYR76       0.0417
     58  CZ        20.6490   76.0450   78.2030 C.ar   76  TYR76       0.1957
     59  OH        20.3910   77.2970   78.6910 O.3    76  TYR76      -0.2866
     60  N         23.1470   70.4100   74.8050 N.am   77  SER77      -0.1938
     61  CA        23.6310   69.0930   74.3920 C.3    77  SER77       0.2055
     62  C         22.8200   67.9530   75.0080 C.2    77  SER77       0.2644
     63  O         22.4910   66.9720   74.3430 O.2    77  SER77      -0.2714
     64  CB        25.1060   68.9300   74.7880 C.3    77  SER77       0.2130
     65  OG        25.2560   68.8180   76.1910 O.3    77  SER77      -0.2179
     66  N         22.4850   68.1110   76.2790 N.am   78  THR78      -0.1936
     67  CA        21.7600   67.1010   77.0210 C.3    78  THR78       0.2032
     68  C         20.2460   67.3320   77.1390 C.2    78  THR78       0.2681
     69  O         19.5170   66.4770   77.6520 O.2    78  THR78      -0.2710
     70  CB        22.3930   66.9870   78.4100 C.3    78  THR78       0.1808
     71  OG1       22.4700   68.2890   79.0050 O.3    78  THR78      -0.2208
     72  CG2       23.8070   66.4500   78.2960 C.3    78  THR78       0.0379
     73  N         19.7700   68.4780   76.6540 N.am   79  GLY79      -0.1729
     74  CA        18.3470   68.7780   76.7240 C.2    79  GLY79       0.1340
     75  C         17.9460   70.1610   76.2350 C.2    79  GLY79       0.2521
     76  O         18.7620   71.0700   76.1630 O.2    79  GLY79      -0.2816
     77  N         15.5960   65.8040   80.5930 N.3   111  PRO111     -0.2102
     78  CA        16.4230   65.6260   81.7880 C.3   111  PRO111      0.1504
     79  C         16.0840   66.4920   83.0080 C.2   111  PRO111      0.2575
     80  O         16.4310   66.1480   84.1400 O.2   111  PRO111     -0.2718
     81  CB        17.8000   65.9600   81.2670 C.3   111  PRO111      0.0282
     82  CG        17.5000   67.1410   80.4130 C.3   111  PRO111      0.0208
     83  CD        16.2820   66.6900   79.6360 C.3   111  PRO111      0.0893
     84  N         15.3950   67.6030   82.7940 N.am  112  PHE112     -0.1977
     85  CA        15.1180   68.5040   83.9050 C.3   112  PHE112      0.1639
     86  C         14.4860   67.9810   85.1810 C.2   112  PHE112      0.2290
     87  O         14.5130   68.6640   86.1960 O.2   112  PHE112     -0.2864
     88  CB        14.3790   69.7230   83.3780 C.3   112  PHE112      0.0560
     89  CG        15.1290   70.4020   82.2880 C.ar  112  PHE112     -0.0200
     90  CD1       14.9250   70.0540   80.9700 C.ar  112  PHE112     -0.0042
     91  CD2       16.1380   71.2860   82.5890 C.ar  112  PHE112     -0.0042
     92  CE1       15.7220   70.5710   79.9780 C.ar  112  PHE112     -0.0003
     93  CE2       16.9360   71.8030   81.6000 C.ar  112  PHE112     -0.0003
     94  CZ        16.7320   71.4470   80.2970 C.ar  112  PHE112     -0.0000
     95  N         15.7450   65.8560   86.6570 N.3   114  LEU114     -0.1231
     96  CA        16.9680   65.5190   87.3720 C.3   114  LEU114      0.1693
     97  C         17.8280   66.7550   87.6030 C.2   114  LEU114      0.2591
     98  O         18.9970   66.6580   87.9560 O.2   114  LEU114     -0.2718
     99  CB        17.7620   64.4730   86.5990 C.3   114  LEU114      0.0284
    100  CG        16.9740   63.2180   86.2340 C.3   114  LEU114      0.0019
    101  CD1       17.8860   62.2570   85.5100 C.3   114  LEU114      0.0001
    102  CD2       16.4060   62.5810   87.4850 C.3   114  LEU114      0.0001
    103  N         17.2330   67.9230   87.4050 N.am  115  ALA115     -0.1980
    104  CA        17.9380   69.1740   87.6110 C.3   115  ALA115      0.1597
    105  C         17.7800   69.5800   89.0610 C.2   115  ALA115      0.2287
    106  O         16.6690   69.7730   89.5280 O.2   115  ALA115     -0.2864
    107  CB        17.3610   70.2580   86.7090 C.3   115  ALA115      0.0319
    108  N         18.8860   72.2580   90.0790 N.3   117  PHE117     -0.1241
    109  CA        18.7170   73.6900   89.9280 C.3   117  PHE117      0.1605
    110  C         17.5160   74.0150   89.0510 C.2   117  PHE117      0.2264
    111  O         16.9090   73.1180   88.4650 O.2   117  PHE117     -0.2867
    112  CB        19.9600   74.2700   89.2860 C.3   117  PHE117      0.0534
    113  CG        20.1910   73.7720   87.8980 C.ar  117  PHE117     -0.0203
    114  CD1       20.6760   72.5010   87.6760 C.ar  117  PHE117     -0.0042
    115  CD2       19.9080   74.5770   86.8100 C.ar  117  PHE117     -0.0042
    116  CE1       20.8770   72.0460   86.3960 C.ar  117  PHE117     -0.0003
    117  CE2       20.1050   74.1300   85.5260 C.ar  117  PHE117     -0.0003
    118  CZ        20.5900   72.8690   85.3150 C.ar  117  PHE117     -0.0000
    119  N         19.4070   78.6880   84.0590 N.3   120  VAL120     -0.1245
    120  CA        20.8160   78.7550   83.7060 C.3   120  VAL120      0.1561
    121  C         21.2380   80.1790   83.3810 C.2   120  VAL120      0.2260
    122  O         20.4710   80.9460   82.7870 O.2   120  VAL120     -0.2867
    123  CB        21.1200   77.8730   82.4850 C.3   120  VAL120      0.0252
    124  CG1       22.5980   77.9410   82.1540 C.3   120  VAL120      0.0019
    125  CG2       20.6880   76.4570   82.7560 C.3   120  VAL120      0.0019
    126  N         35.4080   74.7480   91.1430 N.3   155  TYR155     -0.1241
    127  CA        34.5690   73.5920   91.4570 C.3   155  TYR155      0.1605
    128  C         35.2870   72.6470   92.4080 C.2   155  TYR155      0.2264
    129  O         36.3600   72.1380   92.0920 O.2   155  TYR155     -0.2867
    130  CB        34.1910   72.8270   90.1890 C.3   155  TYR155      0.0534
    131  CG        33.1230   73.4860   89.3590 C.ar  155  TYR155     -0.0201
    132  CD1       32.7270   72.9400   88.1500 C.ar  155  TYR155     -0.0009
    133  CD2       32.5360   74.6720   89.7610 C.ar  155  TYR155     -0.0009
    134  CE1       31.7830   73.5640   87.3590 C.ar  155  TYR155      0.0417
    135  CE2       31.5900   75.3020   88.9760 C.ar  155  TYR155      0.0417
    136  CZ        31.2240   74.7470   87.7770 C.ar  155  TYR155      0.1957
    137  OH        30.3320   75.4020   86.9680 O.3   155  TYR155     -0.2866
    138  N         33.8920   74.5470   79.2240 N.3   219  ASP219     -0.1225
    139  CA        32.4950   74.6620   79.6140 C.3   219  ASP219      0.1805
    140  C         32.2000   74.3660   81.0820 C.2   219  ASP219      0.2598
    141  O         32.1730   73.2180   81.4910 O.2   219  ASP219     -0.2718
    142  CB        31.6840   73.7210   78.7170 C.3   219  ASP219      0.1424
    143  CG        30.2050   73.9060   78.8670 C.2   219  ASP219      0.3668
    144  OD1       29.4520   73.0890   78.2970 O.co2 219  ASP219     -0.2456
    145  OD2       29.7970   74.8740   79.5470 O.co2 219  ASP219     -0.2456
    146  N         31.9620   75.4030   81.8700 N.am  220  THR220     -0.1939
    147  CA        31.6520   75.2150   83.2800 C.3   220  THR220      0.2028
    148  C         30.2540   74.6440   83.3820 C.2   220  THR220      0.2643
    149  O         29.8560   74.1420   84.4310 O.2   220  THR220     -0.2714
    150  CB        31.6540   76.5420   84.0450 C.3   220  THR220      0.1808
    151  OG1       30.6160   77.3910   83.5290 O.3   220  THR220     -0.2208
    152  CG2       32.9960   77.2300   83.9060 C.3   220  THR220      0.0379
    153  N         29.5130   74.7360   82.2840 N.am  221  GLY221     -0.1939
    154  CA        28.1480   74.2460   82.2590 C.3   221  GLY221      0.2014
    155  C         28.0330   72.7650   81.9550 C.2   221  GLY221      0.2639
    156  O         26.9310   72.2080   81.9950 O.2   221  GLY221     -0.2714
    157  N         29.1630   72.1270   81.6540 N.am  222  ALA222     -0.1963
    158  CA        29.1900   70.7010   81.3520 C.3   222  ALA222      0.1728
    159  C         29.6780   69.9390   82.5740 C.2   222  ALA222      0.2616
    160  O         30.5760   70.3950   83.2710 O.2   222  ALA222     -0.2715
    161  CB        30.1060   70.4450   80.1990 C.3   222  ALA222      0.0334
    162  N         29.0980   68.7740   82.8390 N.am  223  SER223     -0.1950
    163  CA        29.5150   67.9840   83.9940 C.3   223  SER223      0.1924
    164  C         30.8690   67.3140   83.8260 C.2   223  SER223      0.2314
    165  O         31.6920   67.3470   84.7330 O.2   223  SER223     -0.2863
    166  CB        28.4780   66.9100   84.3150 C.3   223  SER223      0.2116
    167  OG        27.3600   67.4750   84.9550 O.3   223  SER223     -0.2180
    168  N         30.2240   63.4340   73.3460 N.3   296  MET296     -0.1245
    169  CA        29.2260   64.4330   73.0190 C.3   296  MET296      0.1570
    170  C         29.6340   64.9340   71.6570 C.2   296  MET296      0.2261
    171  O         30.7860   65.3060   71.4600 O.2   296  MET296     -0.2867
    172  CB        29.2730   65.5870   74.0150 C.3   296  MET296      0.0387
    173  CG        27.9450   66.2930   74.2170 C.3   296  MET296      0.0595
    174  SD        26.9540   65.4680   75.4830 S.3   296  MET296     -0.1393
    175  CE        27.3550   66.4880   76.9320 C.3   296  MET296      0.0692
    176  N         33.2440   70.2420   84.4200 N.3   310  ALA310     -0.1245
    177  CA        33.5680   70.2190   85.8410 C.3   310  ALA310      0.1562
    178  C         34.5810   69.1700   86.2390 C.2   310  ALA310      0.2260
    179  O         35.1750   69.2740   87.3050 O.2   310  ALA310     -0.2867
    180  CB        32.3090   70.0400   86.6620 C.3   310  ALA310      0.0290
@<TRIPOS>BOND
     1   171   170    2
     2   170   169    1
     3   169   168    1
     4   169   172    1
     5    51    50    2
     6   172   173    1
     7   173   174    1
     8    63    62    2
     9    48    49    1
    10    61    64    1
    11    61    60    1
    12    61    62    1
    13    50    60   am
    14    50    49    1
    15    64    65    1
    16    62    66   am
    17    49    52    1
    18   174   175    1
    19    47    46    2
    20    76    75    2
    21    75    74    1
    22    66    67    1
    23    52    53    1
    24    73    74    2
    25    73    68    1
    26    46    45    1
    27    67    68    1
    28    67    70    1
    29    68    69    2
    30    53    55   ar
    31    53    54   ar
    32    55    57   ar
    33    54    56   ar
    34    45    44    1
    35    57    58   ar
    36    56    58   ar
    37    58    59    1
    38    72    70    1
    39   144   143   ar
    40    70    71    1
    41   142   143    1
    42   142   139    1
    43   143   145   ar
    44   138   139    1
    45    42    41   ar
    46   139   140    1
    47    83    82    1
    48    83    77    1
    49    92    94   ar
    50    92    90   ar
    51    43    41   ar
    52   161   158    1
    53    41    40    1
    54    94    93   ar
    55    82    81    1
    56    39    38    2
    57    77    78    1
    58    90    89   ar
    59   140   141    2
    60   140   146   am
    61    38    37    1
    62    81    78    1
    63   158   157    1
    64   158   159    1
    65    40    37    1
    66    93    91   ar
    67   157   155   am
    68    78    79    1
    69   146   147    1
    70   155   156    2
    71   155   154    1
    72    37    36    1
    73   124   123    1
    74   154   153    1
    75   153   148   am
    76    89    91   ar
    77    89    88    1
    78   123   125    1
    79   123   120    1
    80   159   162   am
    81   159   160    2
    82   122   121    2
    83    84    79   am
    84    84    85    1
    85   162   163    1
    86    79    80    2
    87   147   148    1
    88   147   150    1
    89    88    85    1
    90   121   120    1
    91   148   149    2
    92   151   150    1
    93   120   119    1
    94   164   163    1
    95   164   165    2
    96    85    86    1
    97   152   150    1
    98   163   166    1
    99   166   167    1
   100   176   177    1
   101    86    87    2
   102   118   117   ar
   103   118   116   ar
   104    32    31    2
   105   101   100    1
   106   117   115   ar
   107   177   178    1
   108   177   180    1
   109    34    33    1
   110    33    35    1
   111    33    30    1
   112    31    30    1
   113   100    99    1
   114   100   102    1
   115   178   179    2
   116   116   114   ar
   117    99    96    1
   118    95    96    1
   119   107   104    1
   120   115   113   ar
   121   137   136    1
   122    30    29    1
   123     4     3    2
   124   134   136   ar
   125   134   132   ar
   126    96    97    1
   127   103    97   am
   128   103   104    1
   129    97    98    2
   130   104   105    1
   131   114   113   ar
   132   136   135   ar
   133     5     7    1
   134     5     2    1
   135     5     6    1
   136   113   112    1
   137     3     2    1
   138     3     8   am
   139    16    14   am
   140   132   131   ar
   141    13    14    1
   142    13    12    1
   143     2     1    1
   144   111   110    2
   145    14    15    2
   146    20    19    2
   147   135   133   ar
   148   110   109    1
   149   105   106    2
   150     9     8    1
   151     9    12    1
   152     9    10    1
   153   112   109    1
   154   131   133   ar
   155   131   130    1
   156    17    10   am
   157    17    18    1
   158    23    25   ar
   159    23    22   ar
   160   109   108    1
   161    25    27   ar
   162    19    18    1
   163    10    11    2
   164    21    18    1
   165    21    22    1
   166   130   127    1
   167    22    24   ar
   168    27    28    1
   169    27    26   ar
   170   126   127    1
   171   127   128    1
   172    24    26   ar
   173   129   128    2
