@<TRIPOS>MOLECULE
tmp/2g1oB01.pdb
 179 172 0 0 0
SMALL
GASTEIGER

@<TRIPOS>ATOM
      1  N         44.6090   89.0890  108.8210 N.3    11  THR11      -0.1203
      2  CA        45.9280   89.6400  108.5340 C.3    11  THR11       0.1994
      3  C         47.0020   89.0530  109.4200 C.2    11  THR11       0.2618
      4  O         48.1720   89.3830  109.2810 O.2    11  THR11      -0.2717
      5  CB        45.9560   91.1640  108.6900 C.3    11  THR11       0.1784
      6  OG1       45.4630   91.5170  109.9870 O.3    11  THR11      -0.2211
      7  CG2       45.1050   91.8230  107.6140 C.3    11  THR11       0.0376
      8  N         46.5950   88.1860  110.3360 N.am   12  GLN12      -0.1965
      9  CA        47.5350   87.5330  111.2380 C.3    12  GLN12       0.1733
     10  C         47.0920   86.1140  111.5170 C.2    12  GLN12       0.2616
     11  O         45.9610   85.8800  111.9380 O.2    12  GLN12      -0.2715
     12  CB        47.6550   88.2920  112.5620 C.3    12  GLN12       0.0408
     13  CG        48.4260   89.5910  112.4590 C.3    12  GLN12       0.0908
     14  CD        48.6190   90.2590  113.8100 C.2    12  GLN12       0.2608
     15  OE1       49.1550   89.6570  114.7420 O.2    12  GLN12      -0.2717
     16  NE2       48.1850   91.5110  113.9200 N.am   12  GLN12      -0.0878
     17  N         47.9970   85.1740  111.2580 N.am   13  TYR13      -0.1974
     18  CA        47.7490   83.7550  111.4830 C.3    13  TYR13       0.1639
     19  C         48.8570   83.2120  112.3740 C.2    13  TYR13       0.2290
     20  O         50.0400   83.3520  112.0540 O.2    13  TYR13      -0.2864
     21  CB        47.7200   83.0040  110.1480 C.3    13  TYR13       0.0560
     22  CG        46.4850   83.2940  109.3260 C.ar   13  TYR13      -0.0198
     23  CD1       46.3980   84.4310  108.5340 C.ar   13  TYR13      -0.0009
     24  CD2       45.3760   82.4580  109.3960 C.ar   13  TYR13      -0.0009
     25  CE1       45.2310   84.7290  107.8360 C.ar   13  TYR13       0.0417
     26  CE2       44.2150   82.7450  108.7070 C.ar   13  TYR13       0.0417
     27  CZ        44.1460   83.8800  107.9300 C.ar   13  TYR13       0.1957
     28  OH        42.9850   84.1560  107.2500 O.3    13  TYR13      -0.2866
     29  N         53.8590   82.7960  114.4300 N.3    29  VAL29      -0.1245
     30  CA        53.4150   82.7830  113.0490 C.3    29  VAL29       0.1561
     31  C         54.3660   81.8350  112.3400 C.2    29  VAL29       0.2260
     32  O         55.5830   81.9500  112.4870 O.2    29  VAL29      -0.2867
     33  CB        53.5440   84.1580  112.3770 C.3    29  VAL29       0.0252
     34  CG1       53.5010   83.9950  110.8690 C.3    29  VAL29       0.0019
     35  CG2       52.4160   85.0650  112.8290 C.3    29  VAL29       0.0019
     36  N         56.0890   81.0770  109.3470 N.3    31  ASP31      -0.1239
     37  CA        56.5680   81.8150  108.1820 C.3    31  ASP31       0.1674
     38  C         57.4340   81.0410  107.1720 C.2    31  ASP31       0.2266
     39  O         58.5390   80.6150  107.5000 O.2    31  ASP31      -0.2867
     40  CB        57.3540   83.0040  108.7260 C.3    31  ASP31       0.1410
     41  CG        57.7940   83.9580  107.6610 C.2    31  ASP31       0.3668
     42  OD1       58.6340   84.8130  107.9950 O.co2  31  ASP31      -0.2456
     43  OD2       57.3050   83.8690  106.5140 O.co2  31  ASP31      -0.2456
     44  N         58.5350   82.4200  104.6150 N.3    33  GLY33      -0.1225
     45  CA        59.3740   83.4540  104.0360 C.3    33  GLY33       0.1811
     46  C         60.5470   83.8530  104.9220 C.2    33  GLY33       0.2280
     47  O         61.0470   84.9790  104.8340 O.2    33  GLY33      -0.2866
     48  N         62.8520   91.9280  108.5220 N.3    76  TYR76      -0.1227
     49  CA        61.6490   91.5620  107.7900 C.3    76  TYR76       0.1736
     50  C         61.1750   92.7270  106.9280 C.2    76  TYR76       0.2596
     51  O         61.6670   93.8490  107.0560 O.2    76  TYR76      -0.2718
     52  CB        60.5350   91.1680  108.7620 C.3    76  TYR76       0.0548
     53  CG        60.8590   89.9620  109.6040 C.ar   76  TYR76      -0.0200
     54  CD1       60.7600   90.0100  110.9930 C.ar   76  TYR76      -0.0009
     55  CD2       61.2750   88.7780  109.0170 C.ar   76  TYR76      -0.0009
     56  CE1       61.0720   88.9080  111.7690 C.ar   76  TYR76       0.0417
     57  CE2       61.5870   87.6730  109.7870 C.ar   76  TYR76       0.0417
     58  CZ        61.4860   87.7450  111.1580 C.ar   76  TYR76       0.1957
     59  OH        61.8160   86.6520  111.9150 O.3    76  TYR76      -0.2866
     60  N         60.2070   92.4480  106.0600 N.am   77  SER77      -0.1938
     61  CA        59.6380   93.4530  105.1670 C.3    77  SER77       0.2055
     62  C         58.9750   94.5860  105.9390 C.2    77  SER77       0.2643
     63  O         58.9330   95.7200  105.4690 O.2    77  SER77      -0.2714
     64  CB        58.5810   92.8190  104.2490 C.3    77  SER77       0.2130
     65  OG        59.1060   91.7390  103.4950 O.3    77  SER77      -0.2179
     66  N         58.4630   94.2840  107.1260 N.am   78  THR78      -0.1950
     67  CA        57.7610   95.2950  107.9020 C.3    78  THR78       0.1897
     68  C         58.3430   95.6620  109.2720 C.2    78  THR78       0.2313
     69  O         57.7310   96.4380  110.0100 O.2    78  THR78      -0.2863
     70  CB        56.2640   94.8870  108.0650 C.3    78  THR78       0.1794
     71  OG1       56.1740   93.5530  108.5800 O.3    78  THR78      -0.2208
     72  CG2       55.5420   94.9380  106.7230 C.3    78  THR78       0.0378
     73  N         56.5860   97.6360  114.3080 N.3   111  PRO111     -0.2102
     74  CA        55.1770   97.2410  114.2900 C.3   111  PRO111      0.1504
     75  C         54.7800   96.2330  115.3740 C.2   111  PRO111      0.2575
     76  O         53.5930   96.0460  115.6510 O.2   111  PRO111     -0.2718
     77  CB        55.0390   96.6300  112.9120 C.3   111  PRO111      0.0282
     78  CG        56.3150   95.8150  112.8380 C.3   111  PRO111      0.0208
     79  CD        57.3770   96.7460  113.4370 C.3   111  PRO111      0.0893
     80  N         55.7680   95.5870  115.9790 N.am  112  PHE112     -0.1977
     81  CA        55.5100   94.5710  116.9870 C.3   112  PHE112      0.1639
     82  C         54.6530   94.9610  118.1850 C.2   112  PHE112      0.2290
     83  O         54.6570   94.2790  119.2030 O.2   112  PHE112     -0.2864
     84  CB        56.8320   93.9740  117.4590 C.3   112  PHE112      0.0560
     85  CG        57.6540   93.4030  116.3420 C.ar  112  PHE112     -0.0200
     86  CD1       58.4950   94.2160  115.5980 C.ar  112  PHE112     -0.0042
     87  CD2       57.5390   92.0680  115.9960 C.ar  112  PHE112     -0.0042
     88  CE1       59.1990   93.7100  114.5340 C.ar  112  PHE112     -0.0003
     89  CE2       58.2390   91.5570  114.9320 C.ar  112  PHE112     -0.0003
     90  CZ        59.0700   92.3790  114.1990 C.ar  112  PHE112     -0.0000
     91  N         51.5950   95.6070  117.4290 N.3   114  LEU114     -0.1231
     92  CA        50.3430   95.2320  116.7970 C.3   114  LEU114      0.1693
     93  C         50.2900   93.7260  116.6020 C.2   114  LEU114      0.2591
     94  O         49.2370   93.1660  116.3040 O.2   114  LEU114     -0.2718
     95  CB        50.2240   95.9250  115.4400 C.3   114  LEU114      0.0284
     96  CG        50.3680   97.4470  115.4510 C.3   114  LEU114      0.0019
     97  CD1       50.2630   97.9780  114.0300 C.3   114  LEU114      0.0001
     98  CD2       49.2870   98.0560  116.3370 C.3   114  LEU114      0.0001
     99  N         51.4370   93.0790  116.7770 N.am  115  ALA115     -0.1980
    100  CA        51.5460   91.6390  116.6050 C.3   115  ALA115      0.1597
    101  C         50.7850   90.8620  117.6600 C.2   115  ALA115      0.2287
    102  O         51.2270   90.7580  118.7980 O.2   115  ALA115     -0.2864
    103  CB        53.0100   91.2290  116.6180 C.3   115  ALA115      0.0319
    104  N         50.7740   88.0890  117.8960 N.3   117  PHE117     -0.1241
    105  CA        51.6570   86.9570  118.1480 C.3   117  PHE117      0.1605
    106  C         52.9210   87.3480  118.9020 C.2   117  PHE117      0.2264
    107  O         53.3340   88.5100  118.8930 O.2   117  PHE117     -0.2867
    108  CB        52.0540   86.2860  116.8290 C.3   117  PHE117      0.0534
    109  CG        52.6230   87.2350  115.8110 C.ar  117  PHE117     -0.0203
    110  CD1       51.7930   88.0480  115.0650 C.ar  117  PHE117     -0.0042
    111  CD2       53.9930   87.3030  115.5960 C.ar  117  PHE117     -0.0042
    112  CE1       52.3160   88.9110  114.1190 C.ar  117  PHE117     -0.0003
    113  CE2       54.5220   88.1640  114.6530 C.ar  117  PHE117     -0.0003
    114  CZ        53.6810   88.9690  113.9130 C.ar  117  PHE117     -0.0000
    115  N         58.1530   84.1110  115.9580 N.3   120  VAL120     -0.1245
    116  CA        58.1010   83.5990  114.5950 C.3   120  VAL120      0.1561
    117  C         58.8410   82.2760  114.4400 C.2   120  VAL120      0.2260
    118  O         59.8910   82.0740  115.0420 O.2   120  VAL120     -0.2867
    119  CB        58.7370   84.6070  113.6090 C.3   120  VAL120      0.0252
    120  CG1       58.8540   83.9850  112.2280 C.3   120  VAL120      0.0019
    121  CG2       57.9110   85.8750  113.5580 C.3   120  VAL120      0.0019
    122  N         44.5990   78.4350  105.6480 N.3   155  TYR155     -0.1241
    123  CA        44.1580   79.6590  106.2960 C.3   155  TYR155      0.1605
    124  C         42.6730   79.7570  106.0320 C.2   155  TYR155      0.2264
    125  O         42.2130   79.5700  104.9050 O.2   155  TYR155     -0.2867
    126  CB        44.8680   80.8910  105.7280 C.3   155  TYR155      0.0534
    127  CG        46.2620   81.1210  106.2670 C.ar  155  TYR155     -0.0201
    128  CD1       47.0470   82.1640  105.7950 C.ar  155  TYR155     -0.0009
    129  CD2       46.8110   80.2710  107.2150 C.ar  155  TYR155     -0.0009
    130  CE1       48.3370   82.3420  106.2440 C.ar  155  TYR155      0.0417
    131  CE2       48.0980   80.4430  107.6700 C.ar  155  TYR155      0.0417
    132  CZ        48.8580   81.4750  107.1800 C.ar  155  TYR155      0.1957
    133  OH        50.1550   81.6270  107.6170 O.3   155  TYR155     -0.2866
    134  N         56.8390   84.4690   95.4350 N.3   217  LEU217     -0.1245
    135  CA        57.2330   83.8900   96.7120 C.3   217  LEU217      0.1561
    136  C         55.9380   83.4080   97.3620 C.2   217  LEU217      0.2260
    137  O         54.9590   84.1620   97.4070 O.2   217  LEU217     -0.2867
    138  CB        57.8410   84.9770   97.5990 C.3   217  LEU217      0.0270
    139  CG        59.1030   84.7880   98.4510 C.3   217  LEU217      0.0019
    140  CD1       59.0370   85.8090   99.5710 C.3   217  LEU217      0.0001
    141  CD2       59.2160   83.3810   99.0300 C.3   217  LEU217      0.0001
    142  N         54.5630   83.1100  100.4760 N.3   219  ASP219     -0.1225
    143  CA        54.8440   83.5400  101.8400 C.3   219  ASP219      0.1805
    144  C         53.6880   83.4030  102.8290 C.2   219  ASP219      0.2598
    145  O         52.7590   84.2120  102.8330 O.2   219  ASP219     -0.2718
    146  CB        55.3140   84.9940  101.7810 C.3   219  ASP219      0.1424
    147  CG        55.9090   85.4730  103.0790 C.2   219  ASP219      0.3668
    148  OD1       56.4360   86.6110  103.0940 O.co2 219  ASP219     -0.2456
    149  OD2       55.8500   84.7190  104.0740 O.co2 219  ASP219     -0.2456
    150  N         53.7560   82.3900  103.6840 N.am  220  THR220     -0.1939
    151  CA        52.7070   82.1670  104.6720 C.3   220  THR220      0.2028
    152  C         52.7680   83.2450  105.7440 C.2   220  THR220      0.2643
    153  O         51.7990   83.4810  106.4590 O.2   220  THR220     -0.2714
    154  CB        52.8570   80.7920  105.3490 C.3   220  THR220      0.1808
    155  OG1       54.1050   80.7390  106.0440 O.3   220  THR220     -0.2208
    156  CG2       52.8120   79.6810  104.3240 C.3   220  THR220      0.0379
    157  N         53.9230   83.8940  105.8490 N.am  221  GLY221     -0.1939
    158  CA        54.1060   84.9510  106.8280 C.3   221  GLY221      0.2014
    159  C         53.7050   86.3270  106.3200 C.2   221  GLY221      0.2639
    160  O         53.9600   87.3280  106.9830 O.2   221  GLY221     -0.2714
    161  N         53.0760   86.3840  105.1480 N.am  222  ALA222     -0.1963
    162  CA        52.6330   87.6540  104.5580 C.3   222  ALA222      0.1728
    163  C         51.1020   87.7890  104.5830 C.2   222  ALA222      0.2616
    164  O         50.3720   86.9190  104.0960 O.2   222  ALA222     -0.2715
    165  CB        53.1410   87.7630  103.1260 C.3   222  ALA222      0.0334
    166  N         50.6210   88.8900  105.1450 N.am  223  SER223     -0.1950
    167  CA        49.1860   89.1250  105.2370 C.3   223  SER223      0.1924
    168  C         48.4930   89.1500  103.8850 C.2   223  SER223      0.2314
    169  O         47.4240   88.5620  103.7130 O.2   223  SER223     -0.2863
    170  CB        48.9050   90.4490  105.9530 C.3   223  SER223      0.2116
    171  OG        49.4010   90.4390  107.2830 O.3   223  SER223     -0.2180
    172  N         54.5900   96.0600   97.5340 N.3   296  MET296     -0.1245
    173  CA        55.6690   95.6570   98.4250 C.3   296  MET296      0.1570
    174  C         56.9290   95.4270   97.6100 C.2   296  MET296      0.2261
    175  O         57.1030   94.3900   96.9870 O.2   296  MET296     -0.2867
    176  CB        55.3050   94.3800   99.1800 C.3   296  MET296      0.0387
    177  CG        56.2260   94.0810  100.3550 C.3   296  MET296      0.0595
    178  SD        55.9740   95.2200  101.7410 S.3   296  MET296     -0.1393
    179  CE        55.1320   94.1340  102.9060 C.3   296  MET296      0.0692
@<TRIPOS>BOND
     1   134   135    1
     2   135   136    1
     3   135   138    1
     4   175   174    2
     5   136   137    2
     6   172   173    1
     7   138   139    1
     8   174   173    1
     9   173   176    1
    10   139   141    1
    11   139   140    1
    12   176   177    1
    13   177   178    1
    14   142   143    1
    15   178   179    1
    16   146   143    1
    17   146   147    1
    18   143   144    1
    19   144   145    2
    20   144   150   am
    21   147   148   ar
    22   147   149   ar
    23   165   162    1
    24    65    64    1
    25   150   151    1
    26   169   168    2
    27   168   167    1
    28    45    44    1
    29    45    46    1
    30   164   163    2
    31    64    61    1
    32   156   154    1
    33   162   163    1
    34   162   161    1
    35   163   166   am
    36   151   154    1
    37   151   152    1
    38    47    46    2
    39   125   124    2
    40   166   167    1
    41   161   159   am
    42    61    62    1
    43    61    60    1
    44   167   170    1
    45   154   155    1
    46    63    62    2
    47   122   123    1
    48   126   127    1
    49   126   123    1
    50   152   157   am
    51   152   153    2
    52   128   130   ar
    53   128   127   ar
    54   157   158    1
    55    62    66   am
    56   170   171    1
    57   124   123    1
    58    60    50   am
    59   130   132   ar
    60   127   129   ar
    61   159   158    1
    62   159   160    2
    63    43    41   ar
    64    72    70    1
    65    50    51    2
    66    50    49    1
    67    66    67    1
    68    38    39    2
    69    38    37    1
    70   132   133    1
    71   132   131   ar
    72   129   131   ar
    73    28    27    1
    74     7     5    1
    75    41    42   ar
    76    41    40    1
    77    49    48    1
    78    49    52    1
    79    25    27   ar
    80    25    23   ar
    81    67    70    1
    82    67    68    1
    83    27    26   ar
    84    70    71    1
    85    37    40    1
    86    37    36    1
    87     2     5    1
    88     2     1    1
    89     2     3    1
    90    23    22   ar
    91     5     6    1
    92    26    24   ar
    93    52    53    1
    94    55    53   ar
    95    55    57   ar
    96    68    69    2
    97     4     3    2
    98    22    24   ar
    99    22    21    1
   100     3     8   am
   101    53    54   ar
   102    57    58   ar
   103    21    18    1
   104     8     9    1
   105    34    33    1
   106    54    56   ar
   107    58    56   ar
   108    58    59    1
   109     9    10    1
   110     9    12    1
   111    17    18    1
   112    17    10   am
   113    18    19    1
   114    10    11    2
   115    20    19    2
   116   120   119    1
   117    31    32    2
   118    31    30    1
   119    33    35    1
   120    33    30    1
   121    13    12    1
   122    13    14    1
   123    78    77    1
   124    78    79    1
   125    77    74    1
   126    30    29    1
   127    79    73    1
   128   121   119    1
   129   119   116    1
   130    14    16   am
   131    14    15    2
   132   114   112   ar
   133   114   113   ar
   134    97    96    1
   135   112   110   ar
   136    90    88   ar
   137    90    89   ar
   138    74    73    1
   139    74    75    1
   140   117   116    1
   141   117   118    2
   142    88    86   ar
   143   116   115    1
   144   113   111   ar
   145    89    87   ar
   146   110   109   ar
   147    75    76    2
   148    75    80   am
   149    95    96    1
   150    95    92    1
   151    96    98    1
   152   111   109   ar
   153    86    85   ar
   154   109   108    1
   155    80    81    1
   156    87    85   ar
   157    94    93    2
   158    85    84    1
   159    93    99   am
   160    93    92    1
   161   100   103    1
   162   100    99    1
   163   100   101    1
   164    92    91    1
   165   108   105    1
   166    81    84    1
   167    81    82    1
   168   101   102    2
   169   104   105    1
   170   105   106    1
   171    82    83    2
   172   107   106    2
