@<TRIPOS>MOLECULE
tmp/2g1qB01.pdb
 158 150 0 0 0
SMALL
GASTEIGER

@<TRIPOS>ATOM
      1  N         41.2430    7.3720   57.0470 N.3    95  THR95      -0.1218
      2  CA        41.1340    8.5250   56.1700 C.3    95  THR95       0.1862
      3  C         41.6000    8.2630   54.7270 C.2    95  THR95       0.2287
      4  O         41.0980    8.8690   53.7820 O.2    95  THR95      -0.2866
      5  CB        41.8950    9.7110   56.7940 C.3    95  THR95       0.1770
      6  OG1       41.4500    9.8720   58.1530 O.3    95  THR95      -0.2211
      7  CG2       41.6360   11.0070   56.0100 C.3    95  THR95       0.0375
      8  N         38.6360    9.0460   52.4060 N.3    99  GLU99      -0.1231
      9  CA        38.8970   10.2680   51.6500 C.3    99  GLU99       0.1699
     10  C         39.9160   10.1030   50.5350 C.2    99  GLU99       0.2593
     11  O         39.6770   10.5310   49.4080 O.2    99  GLU99      -0.2718
     12  CB        39.3560   11.3930   52.5900 C.3    99  GLU99       0.0402
     13  CG        38.3700   11.6730   53.7350 C.3    99  GLU99       0.1161
     14  CD        38.7500   12.8540   54.5680 C.2    99  GLU99       0.3649
     15  OE1       39.8980   13.3170   54.4500 O.co2  99  GLU99      -0.2457
     16  OE2       37.9030   13.3190   55.3510 O.co2  99  GLU99      -0.2457
     17  N         41.0520    9.4900   50.8620 N.am  100  GLY100     -0.1942
     18  CA        42.1080    9.2720   49.8860 C.3   100  GLY100      0.2014
     19  C         43.1310   10.3890   49.8750 C.2   100  GLY100      0.2639
     20  O         43.0900   11.2890   50.7130 O.2   100  GLY100     -0.2714
     21  N         44.0540   10.3380   48.9240 N.am  101  GLU101     -0.1963
     22  CA        45.0820   11.3580   48.8120 C.3   101  GLU101      0.1733
     23  C         45.2850   11.7520   47.3550 C.2   101  GLU101      0.2616
     24  O         44.5930   11.2660   46.4650 O.2   101  GLU101     -0.2715
     25  CB        46.4100   10.8370   49.3640 C.3   101  GLU101      0.0429
     26  CG        46.3280   10.2020   50.7410 C.3   101  GLU101      0.1163
     27  CD        47.6950    9.8900   51.2940 C.2   101  GLU101      0.3649
     28  OE1       48.5780    9.4910   50.5010 O.co2 101  GLU101     -0.2457
     29  OE2       47.8890   10.0400   52.5200 O.co2 101  GLU101     -0.2457
     30  N         46.2270   12.6510   47.1150 N.am  102  ARG102     -0.1977
     31  CA        46.5240   13.0660   45.7610 C.3   102  ARG102      0.1597
     32  C         47.8490   12.4090   45.3970 C.2   102  ARG102      0.2287
     33  O         48.7270   12.2400   46.2580 O.2   102  ARG102     -0.2864
     34  CB        46.6730   14.5910   45.6690 C.3   102  ARG102      0.0334
     35  CG        45.4290   15.4050   46.0710 C.3   102  ARG102      0.0492
     36  CD        44.1800   14.9700   45.3370 C.3   102  ARG102      0.2205
     37  NE        44.3440   14.9290   43.8860 N.pl3 102  ARG102     -0.0865
     38  CZ        44.2740   15.9820   43.0810 C.cat 102  ARG102      0.5346
     39  NH1       44.0360   17.1930   43.5710 N.pl3 102  ARG102      0.1354
     40  NH2       44.4400   15.8160   41.7770 N.pl3 102  ARG102      0.1354
     41  N         41.6890   15.6370   40.0910 N.3   110  TRP110     -0.1241
     42  CA        41.0250   14.9550   41.1970 C.3   110  TRP110      0.1605
     43  C         40.1430   13.7800   40.8060 C.2   110  TRP110      0.2264
     44  O         40.2040   12.7230   41.4380 O.2   110  TRP110     -0.2867
     45  CB        40.2050   15.9380   42.0370 C.3   110  TRP110      0.0550
     46  CG        38.9120   16.3620   41.4260 C.ar  110  TRP110      0.0003
     47  CD1       38.7070   17.3990   40.5650 C.ar  110  TRP110      0.0946
     48  CD2       37.6310   15.7630   41.6440 C.ar  110  TRP110      0.0152
     49  NE1       37.3740   17.4880   40.2410 N.ar  110  TRP110     -0.2442
     50  CE2       36.6930   16.4930   40.8910 C.ar  110  TRP110      0.0810
     51  CE3       37.1870   14.6800   42.4060 C.ar  110  TRP110      0.0012
     52  CZ2       35.3360   16.1750   40.8790 C.ar  110  TRP110      0.0191
     53  CZ3       35.8420   14.3630   42.3950 C.ar  110  TRP110      0.0001
     54  CH2       34.9310   15.1080   41.6390 C.ar  110  TRP110      0.0015
     55  N         42.5290   10.6690   39.9360 N.3   113  ASP113     -0.1239
     56  CA        43.6030   10.2160   40.7990 C.3   113  ASP113      0.1674
     57  C         43.3500    8.8430   41.3970 C.2   113  ASP113      0.2266
     58  O         42.3510    8.6170   42.0830 O.2   113  ASP113     -0.2867
     59  CB        43.8350   11.2330   41.9120 C.3   113  ASP113      0.1410
     60  CG        45.2220   11.1920   42.4440 C.2   113  ASP113      0.3668
     61  OD1       45.7330   12.2770   42.7750 O.co2 113  ASP113     -0.2456
     62  OD2       45.8150   10.0980   42.5470 O.co2 113  ASP113     -0.2456
     63  N         42.4450    8.6420   45.0750 N.3   116  ALA116     -0.1245
     64  CA        41.1940    9.1850   45.6060 C.3   116  ALA116      0.1562
     65  C         40.4730    8.1070   46.3990 C.2   116  ALA116      0.2260
     66  O         40.5400    6.9310   46.0570 O.2   116  ALA116     -0.2867
     67  CB        40.3000    9.6880   44.4720 C.3   116  ALA116      0.0290
     68  N         34.8490    9.0190   49.3060 N.3   119  ILE119     -0.1231
     69  CA        34.0890   10.2650   49.1830 C.3   119  ILE119      0.1678
     70  C         34.2180   10.9470   47.8090 C.2   119  ILE119      0.2434
     71  O         33.2160   11.1790   47.1410 O.2   119  ILE119     -0.2733
     72  CB        34.4530   11.2410   50.3440 C.3   119  ILE119      0.0265
     73  CG1       33.9450   10.6540   51.6710 C.3   119  ILE119      0.0019
     74  CG2       33.8520   12.6070   50.1060 C.3   119  ILE119      0.0020
     75  CD1       34.2370   11.4980   52.9110 C.3   119  ILE119      0.0001
     76  N         35.4370   11.2790   47.3600 N.am  120  PRO120     -0.2729
     77  CA        35.4520   11.9140   46.0390 C.3   120  PRO120      0.1401
     78  C         34.8800   11.0270   44.9320 C.2   120  PRO120      0.2269
     79  O         34.1790   11.5030   44.0400 O.2   120  PRO120     -0.2865
     80  CB        36.9290   12.2480   45.8260 C.3   120  PRO120      0.0296
     81  CG        37.6480   11.2820   46.7230 C.3   120  PRO120      0.0237
     82  CD        36.7810   11.2710   47.9520 C.3   120  PRO120      0.0939
     83  N         28.9220   18.1110   56.3060 N.3   143  LEU143     -0.1245
     84  CA        30.0520   17.5520   57.0250 C.3   143  LEU143      0.1561
     85  C         29.9540   17.8810   58.5040 C.2   143  LEU143      0.2260
     86  O         30.3410   18.9690   58.9440 O.2   143  LEU143     -0.2867
     87  CB        31.3610   18.0870   56.4460 C.3   143  LEU143      0.0270
     88  CG        32.6390   17.4540   57.0070 C.3   143  LEU143      0.0019
     89  CD1       32.4320   15.9550   57.1550 C.3   143  LEU143      0.0001
     90  CD2       33.8150   17.7560   56.0850 C.3   143  LEU143      0.0001
     91  N         32.0850   22.4930   56.6970 N.3   155  LEU155     -0.1245
     92  CA        31.8170   22.9390   55.3150 C.3   155  LEU155      0.1561
     93  C         31.1190   24.2930   55.2580 C.2   155  LEU155      0.2260
     94  O         30.9570   24.8670   54.1830 O.2   155  LEU155     -0.2867
     95  CB        30.9640   21.9160   54.5480 C.3   155  LEU155      0.0270
     96  CG        31.6700   20.6350   54.0970 C.3   155  LEU155      0.0019
     97  CD1       30.7130   19.7680   53.3220 C.3   155  LEU155      0.0001
     98  CD2       32.8640   20.9860   53.2370 C.3   155  LEU155      0.0001
     99  N         35.0340   19.2650   43.8650 N.3   194  TYR194     -0.1241
    100  CA        36.3810   19.5680   44.3420 C.3   194  TYR194      0.1605
    101  C         36.4750   20.8170   45.2240 C.2   194  TYR194      0.2264
    102  O         37.1290   20.7970   46.2700 O.2   194  TYR194     -0.2867
    103  CB        37.3560   19.6900   43.1680 C.3   194  TYR194      0.0534
    104  CG        38.7950   19.7660   43.6130 C.ar  194  TYR194     -0.0201
    105  CD1       39.3900   18.7050   44.2870 C.ar  194  TYR194     -0.0009
    106  CD2       39.5520   20.9090   43.3940 C.ar  194  TYR194     -0.0009
    107  CE1       40.7050   18.7800   44.7330 C.ar  194  TYR194      0.0417
    108  CE2       40.8640   20.9940   43.8330 C.ar  194  TYR194      0.0417
    109  CZ        41.4370   19.9290   44.5020 C.ar  194  TYR194      0.1957
    110  OH        42.7430   20.0190   44.9460 O.3   194  TYR194     -0.2866
    111  N         35.1530   20.0800   48.6960 N.3   197  LEU197     -0.1231
    112  CA        36.1020   19.3150   49.4920 C.3   197  LEU197      0.1693
    113  C         37.2580   20.2260   49.9160 C.2   197  LEU197      0.2591
    114  O         37.7410   20.1520   51.0470 O.2   197  LEU197     -0.2718
    115  CB        36.6540   18.1490   48.6810 C.3   197  LEU197      0.0284
    116  CG        35.6030   17.1580   48.2050 C.3   197  LEU197      0.0019
    117  CD1       36.2700   16.0550   47.4180 C.3   197  LEU197      0.0001
    118  CD2       34.8480   16.6030   49.4070 C.3   197  LEU197      0.0001
    119  N         37.6880   21.0820   48.9910 N.am  198  GLU198     -0.1979
    120  CA        38.7780   22.0240   49.2180 C.3   198  GLU198      0.1602
    121  C         38.5010   22.8740   50.4560 C.2   198  GLU198      0.2287
    122  O         39.3490   22.9900   51.3470 O.2   198  GLU198     -0.2864
    123  CB        38.9440   22.9170   47.9860 C.3   198  GLU198      0.0415
    124  CG        40.3670   22.9630   47.4450 C.3   198  GLU198      0.1163
    125  CD        40.4630   23.7130   46.1480 C.2   198  GLU198      0.3649
    126  OE1       41.5850   23.8380   45.6090 O.co2 198  GLU198     -0.2457
    127  OE2       39.4110   24.1760   45.6610 O.co2 198  GLU198     -0.2457
    128  N         36.4180   22.1940   52.8140 N.3   200  GLY200     -0.1210
    129  CA        36.3940   21.3040   53.9610 C.3   200  GLY200      0.1956
    130  C         37.7990   21.1170   54.5020 C.2   200  GLY200      0.2611
    131  O         38.0390   21.2830   55.7090 O.2   200  GLY200     -0.2717
    132  N         38.7220   20.7860   53.5970 N.am  201  ALA201     -0.1979
    133  CA        40.1220   20.5990   53.9440 C.3   201  ALA201      0.1597
    134  C         40.6350   21.8220   54.7080 C.2   201  ALA201      0.2287
    135  O         41.2770   21.6890   55.7540 O.2   201  ALA201     -0.2864
    136  CB        40.9510   20.3790   52.6790 C.3   201  ALA201      0.0319
    137  N         39.3480   21.8770   58.2160 N.3   204  ARG204     -0.1245
    138  CA        39.9910   20.7910   58.9740 C.3   204  ARG204      0.1563
    139  C         41.3060   21.2780   59.5670 C.2   204  ARG204      0.2260
    140  O         41.5960   21.0420   60.7430 O.2   204  ARG204     -0.2867
    141  CB        40.2670   19.5880   58.0540 C.3   204  ARG204      0.0307
    142  CG        39.0180   18.7770   57.6540 C.3   204  ARG204      0.0489
    143  CD        38.8660   17.6330   58.6330 C.3   204  ARG204      0.2205
    144  NE        37.7220   16.7550   58.3540 N.pl3 204  ARG204     -0.0865
    145  CZ        37.6540   15.8600   57.3700 C.cat 204  ARG204      0.5346
    146  NH1       38.6750   15.6990   56.5260 N.pl3 204  ARG204      0.1354
    147  NH2       36.5610   15.1150   57.2400 N.pl3 204  ARG204      0.1354
    148  N         30.3410   12.5420   56.9320 N.3   222  PHE222     -0.1241
    149  CA        30.1230   13.2180   55.6510 C.3   222  PHE222      0.1605
    150  C         28.9210   12.5790   54.9750 C.2   222  PHE222      0.2264
    151  O         29.0230   11.4580   54.4700 O.2   222  PHE222     -0.2867
    152  CB        31.3340   13.0410   54.7460 C.3   222  PHE222      0.0534
    153  CG        31.3130   13.9090   53.5260 C.ar  222  PHE222     -0.0203
    154  CD1       30.4100   13.6780   52.4920 C.ar  222  PHE222     -0.0042
    155  CD2       32.2130   14.9570   53.4040 C.ar  222  PHE222     -0.0042
    156  CE1       30.4020   14.4840   51.3550 C.ar  222  PHE222     -0.0003
    157  CE2       32.2230   15.7670   52.2770 C.ar  222  PHE222     -0.0003
    158  CZ        31.3140   15.5320   51.2440 C.ar  222  PHE222     -0.0000
@<TRIPOS>BOND
     1    55    56    1
     2    41    42    1
     3    49    47   ar
     4    49    50   ar
     5    47    46   ar
     6    56    57    1
     7    56    59    1
     8    43    42    1
     9    43    44    2
    10    52    50   ar
    11    52    54   ar
    12    50    48   ar
    13    42    45    1
    14    57    58    2
    15    46    48   ar
    16    46    45    1
    17    54    53   ar
    18    48    51   ar
    19    40    38    1
    20    59    60    1
    21    53    51   ar
    22    60    62   ar
    23    60    61   ar
    24    38    39    1
    25    38    37    2
    26   103   104    1
    27   103   100    1
    28   106   104   ar
    29   106   108   ar
    30   104   105   ar
    31   108   109   ar
    32    99   100    1
    33    37    36    1
    34    79    78    2
    35   105   107   ar
    36   100   101    1
    37    67    64    1
    38   109   107   ar
    39   109   110    1
    40    78    77    1
    41    63    64    1
    42   101   102    2
    43    36    35    1
    44    32    31    1
    45    32    33    2
    46    64    65    1
    47   126   125   ar
    48   127   125   ar
    49    34    31    1
    50    34    35    1
    51    31    30    1
    52    80    77    1
    53    80    81    1
    54    77    76    1
    55    66    65    2
    56   125   124    1
    57    24    23    2
    58    81    82    1
    59    30    23   am
    60    71    70    2
    61    23    22    1
    62    76    70   am
    63    76    82    1
    64   117   116    1
    65   124   123    1
    66    70    69    1
    67   123   120    1
    68   116   115    1
    69   116   118    1
    70   115   112    1
    71   111   112    1
    72    22    21    1
    73    22    25    1
    74    21    19   am
    75   119   120    1
    76   119   113   am
    77    69    68    1
    78    69    72    1
    79   120   121    1
    80    25    26    1
    81    11    10    2
    82   112   113    1
    83    19    18    1
    84    19    20    2
    85    18    17    1
    86   113   114    2
    87    74    72    1
    88    72    73    1
    89   121   122    2
    90    28    27   ar
    91    10    17   am
    92    10     9    1
    93    26    27    1
    94   158   156   ar
    95   158   157   ar
    96    27    29   ar
    97   156   154   ar
    98     9     8    1
    99     9    12    1
   100    73    75    1
   101   157   155   ar
   102   154   153   ar
   103    12    13    1
   104   136   133    1
   105   128   129    1
   106    98    96    1
   107    97    96    1
   108   155   153   ar
   109   153   152    1
   110   132   133    1
   111   132   130   am
   112    13    14    1
   113     4     3    2
   114   133   134    1
   115   129   130    1
   116    96    95    1
   117    94    93    2
   118    15    14   ar
   119   151   150    2
   120   130   131    2
   121    95    92    1
   122    14    16   ar
   123   134   135    2
   124     3     2    1
   125   152   149    1
   126   150   149    1
   127    93    92    1
   128    92    91    1
   129   149   148    1
   130     7     5    1
   131    90    88    1
   132     2     5    1
   133     2     1    1
   134    83    84    1
   135    87    88    1
   136    87    84    1
   137   146   145    1
   138     5     6    1
   139    88    89    1
   140    84    85    1
   141   147   145    1
   142   145   144    2
   143   142   141    1
   144   142   143    1
   145   141   138    1
   146   137   138    1
   147   144   143    1
   148    85    86    2
   149   138   139    1
   150   139   140    2
