@<TRIPOS>MOLECULE
tmp/2g1tD00.pdb
 181 179 0 0 0
SMALL
GASTEIGER

@<TRIPOS>ATOM
      1  N        -25.3440   -3.2820  -63.8690 N.3    27  GLN27      -0.1245
      2  CA       -24.2180   -2.4510  -63.4790 C.3    27  GLN27       0.1566
      3  C        -24.1480   -2.1910  -61.9800 C.2    27  GLN27       0.2260
      4  O        -23.0620   -2.0240  -61.4320 O.2    27  GLN27      -0.2867
      5  CB       -24.3000   -1.1130  -64.2160 C.3    27  GLN27       0.0367
      6  CG       -23.0990   -0.1880  -64.0380 C.3    27  GLN27       0.0905
      7  CD       -21.8940   -0.6080  -64.8710 C.2    27  GLN27       0.2608
      8  OE1      -22.0350   -1.2500  -65.9190 O.2    27  GLN27      -0.2717
      9  NE2      -20.7030   -0.2300  -64.4190 N.am   27  GLN27      -0.0878
     10  N        -38.0730   -6.1210  -71.7170 N.3    99  LEU99      -0.1245
     11  CA       -37.3030   -6.4830  -72.8990 C.3    99  LEU99       0.1561
     12  C        -37.5050   -7.9530  -73.2530 C.2    99  LEU99       0.2260
     13  O        -37.9360   -8.2760  -74.3620 O.2    99  LEU99      -0.2867
     14  CB       -35.8120   -6.2140  -72.6810 C.3    99  LEU99       0.0270
     15  CG       -34.9190   -6.5230  -73.8880 C.3    99  LEU99       0.0019
     16  CD1      -35.3490   -5.6690  -75.0690 C.3    99  LEU99       0.0001
     17  CD2      -33.4600   -6.2650  -73.5350 C.3    99  LEU99       0.0001
     18  N        -31.9030    5.8570  -65.7960 N.3   138  ASP138     -0.1239
     19  CA       -31.6710    4.5830  -66.4850 C.3   138  ASP138      0.1674
     20  C        -32.9110    4.0400  -67.1850 C.2   138  ASP138      0.2266
     21  O        -33.0910    2.8200  -67.2480 O.2   138  ASP138     -0.2867
     22  CB       -31.2000    3.5160  -65.4880 C.3   138  ASP138      0.1410
     23  CG       -29.7570    3.6840  -65.0810 C.2   138  ASP138      0.3668
     24  OD1      -28.9060    3.8300  -65.9800 O.co2 138  ASP138     -0.2456
     25  OD2      -29.4740    3.6520  -63.8670 O.co2 138  ASP138     -0.2456
     26  N        -35.1470   -2.6530  -70.2350 N.3   142  ARG142     -0.1245
     27  CA       -34.5680   -3.4880  -69.1910 C.3   142  ARG142      0.1563
     28  C        -34.9810   -3.0290  -67.8030 C.2   142  ARG142      0.2260
     29  O        -34.8580   -3.7890  -66.8530 O.2   142  ARG142     -0.2867
     30  CB       -33.0370   -3.5230  -69.2930 C.3   142  ARG142      0.0307
     31  CG       -32.3820   -2.1540  -69.3200 C.3   142  ARG142      0.0489
     32  CD       -30.8590   -2.2590  -69.3060 C.3   142  ARG142      0.2205
     33  NE       -30.2540   -0.9490  -69.5510 N.pl3 142  ARG142     -0.0865
     34  CZ       -30.1670   -0.3720  -70.7440 C.cat 142  ARG142      0.5346
     35  NH1      -30.6280   -0.9920  -71.8190 N.pl3 142  ARG142      0.1354
     36  NH2      -29.6650    0.8530  -70.8590 N.pl3 142  ARG142      0.1354
     37  N         -9.3570    9.5980  -66.3120 N.3   171  HIS171     -0.1226
     38  CA        -9.3970    9.6680  -67.7680 C.3   171  HIS171      0.1752
     39  C        -10.5730   10.5300  -68.2240 C.2   171  HIS171      0.2596
     40  O        -11.5510   10.7010  -67.4930 O.2   171  HIS171     -0.2718
     41  CB        -9.5120    8.2580  -68.3640 C.3   171  HIS171      0.0759
     42  CG       -10.9210    7.8200  -68.6220 C.ar  171  HIS171      0.0818
     43  ND1      -11.9220    7.9350  -67.6830 N.ar  171  HIS171     -0.2268
     44  CD2      -11.4930    7.2630  -69.7160 C.ar  171  HIS171      0.1154
     45  CE1      -13.0510    7.4680  -68.1870 C.ar  171  HIS171      0.1986
     46  NE2      -12.8180    7.0540  -69.4190 N.ar  171  HIS171     -0.2212
     47  N        -10.4690   11.0730  -69.4330 N.am  172  ALA172     -0.1966
     48  CA       -11.5230   11.9190  -69.9820 C.3   172  ALA172      0.1728
     49  C        -12.7370   11.0820  -70.3770 C.2   172  ALA172      0.2617
     50  O        -12.6130    9.8940  -70.6810 O.2   172  ALA172     -0.2715
     51  CB       -10.9980   12.6900  -71.1940 C.3   172  ALA172      0.0334
     52  N        -13.9080   11.7110  -70.3650 N.am  173  GLY173     -0.1940
     53  CA       -15.1290   11.0130  -70.7200 C.3   173  GLY173      0.2014
     54  C        -15.6790   10.1630  -69.5900 C.2   173  GLY173      0.2639
     55  O        -15.2240   10.2560  -68.4460 O.2   173  GLY173     -0.2714
     56  N        -16.6670    9.3330  -69.9140 N.am  174  ALA174     -0.1963
     57  CA       -17.2920    8.4490  -68.9350 C.3   174  ALA174      0.1728
     58  C        -17.9790    7.2820  -69.6470 C.2   174  ALA174      0.2616
     59  O        -18.0660    7.2650  -70.8740 O.2   174  ALA174     -0.2715
     60  CB       -18.2950    9.2240  -68.1020 C.3   174  ALA174      0.0334
     61  N        -18.4630    6.3150  -68.8690 N.am  175  LYS175     -0.1963
     62  CA       -19.1370    5.1250  -69.4030 C.3   175  LYS175      0.1728
     63  C        -20.6500    5.3470  -69.4030 C.2   175  LYS175      0.2616
     64  O        -21.2140    5.8230  -68.4160 O.2   175  LYS175     -0.2715
     65  CB       -18.8070    3.9220  -68.5270 C.3   175  LYS175      0.0311
     66  CG       -18.9980    2.5640  -69.1700 C.3   175  LYS175      0.0038
     67  CD       -17.8650    2.2560  -70.1330 C.3   175  LYS175      0.0206
     68  CE       -17.8780    0.7970  -70.5620 C.3   175  LYS175      0.1093
     69  NZ       -16.7310    0.4710  -71.4530 N.3   175  LYS175     -0.1314
     70  N        -21.3020    4.9970  -70.5070 N.am  176  PHE176     -0.1960
     71  CA       -22.7480    5.1730  -70.5960 C.3   176  PHE176      0.1756
     72  C        -23.4430    4.0930  -71.4180 C.2   176  PHE176      0.2461
     73  O        -22.7980    3.4460  -72.2370 O.2   176  PHE176     -0.2730
     74  CB       -23.1510    6.4560  -71.3120 C.3   176  PHE176      0.0574
     75  CG       -22.4760    7.6970  -70.8390 C.ar  176  PHE176     -0.0200
     76  CD1      -21.1850    8.0020  -71.2510 C.ar  176  PHE176     -0.0042
     77  CD2      -23.1610    8.6100  -70.0510 C.ar  176  PHE176     -0.0042
     78  CE1      -20.5850    9.2080  -70.8870 C.ar  176  PHE176     -0.0003
     79  CE2      -22.5770    9.8190  -69.6790 C.ar  176  PHE176     -0.0003
     80  CZ       -21.2840   10.1210  -70.1010 C.ar  176  PHE176     -0.0000
     81  N        -24.7680    3.9070  -71.2120 N.am  177  PRO177     -0.2716
     82  CA       -25.5410    2.9140  -71.9670 C.3   177  PRO177      0.1536
     83  C        -25.8690    3.7910  -73.1630 C.2   177  PRO177      0.2598
     84  O        -26.9550    4.3430  -73.2750 O.2   177  PRO177     -0.2715
     85  CB       -26.7500    2.6460  -71.0810 C.3   177  PRO177      0.0310
     86  CG       -26.9260    3.8910  -70.3220 C.3   177  PRO177      0.0237
     87  CD       -25.5100    4.3490  -70.0250 C.3   177  PRO177      0.0939
     88  N        -24.8530    3.9860  -74.0000 N.am  178  ILE178     -0.1964
     89  CA       -24.8930    4.8630  -75.1600 C.3   178  ILE178      0.1727
     90  C        -26.1830    5.0710  -75.9380 C.2   178  ILE178      0.2616
     91  O        -26.6700    6.1980  -76.0440 O.2   178  ILE178     -0.2715
     92  CB       -23.7900    4.4600  -76.1740 C.3   178  ILE178      0.0290
     93  CG1      -22.4130    4.5320  -75.5130 C.3   178  ILE178      0.0022
     94  CG2      -23.8540    5.3920  -77.3790 C.3   178  ILE178      0.0023
     95  CD1      -21.9640    5.9290  -75.1070 C.3   178  ILE178      0.0001
     96  N        -26.7460    3.9850  -76.4560 N.am  179  LYS179     -0.1963
     97  CA       -27.9340    4.0800  -77.2790 C.3   179  LYS179      0.1728
     98  C        -29.2070    4.5970  -76.6150 C.2   179  LYS179      0.2616
     99  O        -30.1900    4.8670  -77.3010 O.2   179  LYS179     -0.2715
    100  CB       -28.1500    2.7300  -77.9620 C.3   179  LYS179      0.0311
    101  CG       -26.9990    2.4080  -78.9410 C.3   179  LYS179      0.0038
    102  CD       -27.1780    1.0930  -79.6950 C.3   179  LYS179      0.0206
    103  CE       -26.0860    0.9420  -80.7600 C.3   179  LYS179      0.1093
    104  NZ       -26.2740   -0.2640  -81.6310 N.3   179  LYS179     -0.1314
    105  N        -29.1820    4.7570  -75.2940 N.am  180  TRP180     -0.1974
    106  CA       -30.3410    5.2660  -74.5650 C.3   180  TRP180      0.1640
    107  C        -30.0610    6.6590  -73.9970 C.2   180  TRP180      0.2290
    108  O        -30.9390    7.2900  -73.4090 O.2   180  TRP180     -0.2864
    109  CB       -30.6820    4.3330  -73.3970 C.3   180  TRP180      0.0576
    110  CG       -31.3990    3.0770  -73.7880 C.ar  180  TRP180      0.0006
    111  CD1      -32.7460    2.8650  -73.7700 C.ar  180  TRP180      0.0946
    112  CD2      -30.8080    1.8670  -74.2780 C.ar  180  TRP180      0.0152
    113  NE1      -33.0340    1.5980  -74.2200 N.ar  180  TRP180     -0.2442
    114  CE2      -31.8620    0.9630  -74.5390 C.ar  180  TRP180      0.0810
    115  CE3      -29.4900    1.4610  -74.5250 C.ar  180  TRP180      0.0012
    116  CZ2      -31.6410   -0.3300  -75.0360 C.ar  180  TRP180      0.0191
    117  CZ3      -29.2680    0.1760  -75.0180 C.ar  180  TRP180      0.0001
    118  CH2      -30.3430   -0.7050  -75.2690 C.ar  180  TRP180      0.0015
    119  N        -24.4510   12.6070  -72.8570 N.3   186  LEU186     -0.1231
    120  CA       -23.2150   11.9750  -73.3060 C.3   186  LEU186      0.1693
    121  C        -22.0670   12.9830  -73.3040 C.2   186  LEU186      0.2591
    122  O        -20.9610   12.6900  -72.8580 O.2   186  LEU186     -0.2718
    123  CB       -23.3750   11.4230  -74.7240 C.3   186  LEU186      0.0284
    124  CG       -24.2270   10.1740  -74.9520 C.3   186  LEU186      0.0019
    125  CD1      -24.3120    9.8910  -76.4390 C.3   186  LEU186      0.0001
    126  CD2      -23.6100    8.9950  -74.2170 C.3   186  LEU186      0.0001
    127  N        -22.3460   14.1780  -73.8030 N.am  187  ALA187     -0.1980
    128  CA       -21.3340   15.2220  -73.8940 C.3   187  ALA187      0.1597
    129  C        -21.0020   15.9600  -72.5970 C.2   187  ALA187      0.2287
    130  O        -19.9010   16.4950  -72.4610 O.2   187  ALA187     -0.2864
    131  CB       -21.7440   16.2320  -74.9690 C.3   187  ALA187      0.0319
    132  N        -32.5860   -4.4700  -80.3650 N.3   213  SER213     -0.1203
    133  CA       -31.5710   -3.5730  -79.8220 C.3   213  SER213      0.2005
    134  C        -31.5940   -2.3400  -80.7030 C.2   213  SER213      0.2460
    135  O        -31.6920   -2.4560  -81.9240 O.2   213  SER213     -0.2732
    136  CB       -30.1860   -4.2140  -79.8910 C.3   213  SER213      0.2103
    137  OG       -30.1470   -5.4100  -79.1390 O.3   213  SER213     -0.2182
    138  N        -31.4950   -1.1450  -80.1000 N.am  214  PRO214     -0.2728
    139  CA       -31.5050    0.1420  -80.8060 C.3   214  PRO214      0.1401
    140  C        -30.3760    0.3010  -81.8280 C.2   214  PRO214      0.2269
    141  O        -29.3270   -0.3300  -81.7120 O.2   214  PRO214     -0.2865
    142  CB       -31.3790    1.1650  -79.6730 C.3   214  PRO214      0.0296
    143  CG       -31.9060    0.4530  -78.4910 C.3   214  PRO214      0.0237
    144  CD       -31.3480   -0.9330  -78.6520 C.3   214  PRO214      0.0939
    145  N        -29.7280   -0.7970  -84.8530 N.3   216  PRO216     -0.2102
    146  CA       -29.1440   -2.0610  -85.3100 C.3   216  PRO216      0.1504
    147  C        -28.0620   -1.9190  -86.3780 C.2   216  PRO216      0.2576
    148  O        -28.2580   -1.2570  -87.3940 O.2   216  PRO216     -0.2718
    149  CB       -30.3650   -2.8530  -85.7920 C.3   216  PRO216      0.0282
    150  CG       -31.3190   -1.7970  -86.2280 C.3   216  PRO216      0.0208
    151  CD       -31.1650   -0.7240  -85.1730 C.3   216  PRO216      0.0893
    152  N        -26.9120   -2.5390  -86.1340 N.am  217  GLY217     -0.1957
    153  CA       -25.8230   -2.4770  -87.0920 C.3   217  GLY217      0.1869
    154  C        -24.9080   -1.2780  -86.9250 C.2   217  GLY217      0.2309
    155  O        -23.8610   -1.1950  -87.5720 O.2   217  GLY217     -0.2863
    156  N        -21.6850    1.5610  -81.1860 N.3   220  LEU220     -0.1231
    157  CA       -21.9090    2.5390  -80.1220 C.3   220  LEU220      0.1693
    158  C        -21.0670    3.7900  -80.3210 C.2   220  LEU220      0.2592
    159  O        -21.5190    4.9080  -80.0620 O.2   220  LEU220     -0.2718
    160  CB       -21.5570    1.9410  -78.7540 C.3   220  LEU220      0.0284
    161  CG       -22.3230    0.7240  -78.2360 C.3   220  LEU220      0.0019
    162  CD1      -22.0300   -0.4910  -79.1010 C.3   220  LEU220      0.0001
    163  CD2      -21.9080    0.4570  -76.7970 C.3   220  LEU220      0.0001
    164  N        -19.8390    3.5850  -80.7830 N.am  221  SER221     -0.1952
    165  CA       -18.8900    4.6680  -80.9950 C.3   221  SER221      0.1924
    166  C        -19.3420    5.7160  -81.9990 C.2   221  SER221      0.2314
    167  O        -18.8870    6.8570  -81.9480 O.2   221  SER221     -0.2863
    168  CB       -17.5430    4.0950  -81.4490 C.3   221  SER221      0.2116
    169  OG       -17.6460    3.5510  -82.7560 O.3   221  SER221     -0.2180
    170  N        -23.2340    9.1290  -81.2270 N.3   224  TYR224     -0.1241
    171  CA       -23.2540   10.5670  -80.9830 C.3   224  TYR224      0.1605
    172  C        -23.1320   11.3690  -82.2720 C.2   224  TYR224      0.2264
    173  O        -23.9420   12.2580  -82.5360 O.2   224  TYR224     -0.2867
    174  CB       -22.1280   10.9860  -80.0420 C.3   224  TYR224      0.0534
    175  CG       -22.1930   12.4530  -79.6910 C.ar  224  TYR224     -0.0201
    176  CD1      -23.0600   12.9130  -78.7010 C.ar  224  TYR224     -0.0009
    177  CD2      -21.4170   13.3890  -80.3750 C.ar  224  TYR224     -0.0009
    178  CE1      -23.1550   14.2670  -78.3980 C.ar  224  TYR224      0.0417
    179  CE2      -21.5070   14.7480  -80.0820 C.ar  224  TYR224      0.0417
    180  CZ       -22.3790   15.1770  -79.0890 C.ar  224  TYR224      0.1957
    181  OH       -22.4700   16.5130  -78.7800 O.3   224  TYR224     -0.2866
@<TRIPOS>BOND
     1   155   154    2
     2   148   147    2
     3   153   154    1
     4   153   152    1
     5   147   152   am
     6   147   146    1
     7   150   149    1
     8   150   151    1
     9   149   146    1
    10   146   145    1
    11   151   145    1
    12   169   168    1
    13   173   172    2
    14   172   171    1
    15   166   167    2
    16   166   165    1
    17   135   134    2
    18   140   141    2
    19   140   139    1
    20   104   103    1
    21   168   165    1
    22   170   171    1
    23   156   157    1
    24   165   164    1
    25   171   174    1
    26   139   138    1
    27   139   142    1
    28   164   158   am
    29   103   102    1
    30   134   138   am
    31   134   133    1
    32   177   179   ar
    33   177   175   ar
    34   132   133    1
    35   158   157    1
    36   158   159    2
    37   157   160    1
    38   138   144    1
    39   179   180   ar
    40   174   175    1
    41   136   133    1
    42   136   137    1
    43   102   101    1
    44   175   176   ar
    45   142   143    1
    46   162   161    1
    47   180   181    1
    48   180   178   ar
    49   101   100    1
    50   160   161    1
    51   176   178   ar
    52   144   143    1
    53   161   163    1
    54   100    97    1
    55    94    92    1
    56    99    98    2
    57    97    98    1
    58    97    96    1
    59    98   105   am
    60    96    90   am
    61   125   124    1
    62    92    93    1
    63    92    89    1
    64    91    90    2
    65    90    89    1
    66    93    95    1
    67   105   106    1
    68   118   116   ar
    69   118   117   ar
    70    89    88    1
    71    16    15    1
    72   116   114   ar
    73   117   115   ar
    74   131   128    1
    75   124   123    1
    76   124   126    1
    77   123   120    1
    78   106   107    1
    79   106   109    1
    80   114   112   ar
    81   114   113   ar
    82   115   112   ar
    83    13    12    2
    84   112   110   ar
    85   113   111   ar
    86    88    83   am
    87   107   108    2
    88   128   127    1
    89   128   129    1
    90    15    17    1
    91    15    14    1
    92   127   121   am
    93   110   111   ar
    94   110   109    1
    95   120   121    1
    96   120   119    1
    97   121   122    2
    98    84    83    2
    99    12    11    1
   100    83    82    1
   101    11    14    1
   102    11    10    1
   103   129   130    2
   104    73    72    2
   105    82    81    1
   106    82    85    1
   107    35    34    1
   108    69    68    1
   109    72    81   am
   110    72    71    1
   111    74    75    1
   112    74    71    1
   113    76    78   ar
   114    76    75   ar
   115    81    87    1
   116    51    48    1
   117    85    86    1
   118    78    80   ar
   119    59    58    2
   120    36    34    1
   121    75    77   ar
   122    34    33    2
   123    53    52    1
   124    53    54    1
   125    50    49    2
   126    71    70    1
   127    68    67    1
   128    70    63   am
   129    49    52   am
   130    49    48    1
   131    86    87    1
   132    26    27    1
   133    67    66    1
   134    80    79   ar
   135    77    79   ar
   136    48    47    1
   137    56    54   am
   138    56    57    1
   139    44    46   ar
   140    44    42   ar
   141    58    57    1
   142    58    61   am
   143    54    55    2
   144    33    32    1
   145    47    39   am
   146    46    45   ar
   147    62    63    1
   148    62    61    1
   149    62    65    1
   150    63    64    2
   151    31    32    1
   152    31    30    1
   153    30    27    1
   154    27    28    1
   155    66    65    1
   156    57    60    1
   157    42    41    1
   158    42    43   ar
   159    41    38    1
   160    39    38    1
   161    39    40    2
   162    45    43   ar
   163    28    29    2
   164    38    37    1
   165    21    20    2
   166    20    19    1
   167    19    18    1
   168    19    22    1
   169    24    23   ar
   170     8     7    2
   171    22    23    1
   172    23    25   ar
   173     7     9   am
   174     7     6    1
   175     5     6    1
   176     5     2    1
   177     1     2    1
   178     2     3    1
   179     3     4    2
