@<TRIPOS>MOLECULE
tmp/2g1tB00.pdb
 215 213 0 0 0
SMALL
GASTEIGER

@<TRIPOS>ATOM
      1  N         25.8740   34.2270  -28.5830 N.3    23  GLN23      -0.1245
      2  CA        26.9780   34.9720  -27.9860 C.3    23  GLN23       0.1566
      3  C         26.9740   34.9860  -26.4630 C.2    23  GLN23       0.2260
      4  O         28.0270   35.0980  -25.8350 O.2    23  GLN23      -0.2867
      5  CB        26.9630   36.4200  -28.4980 C.3    23  GLN23       0.0367
      6  CG        27.2650   36.5610  -29.9850 C.3    23  GLN23       0.0905
      7  CD        28.7240   36.2820  -30.3170 C.2    23  GLN23       0.2608
      8  OE1       29.6200   36.9930  -29.8630 O.2    23  GLN23      -0.2717
      9  NE2       28.9680   35.2430  -31.1090 N.am   23  GLN23      -0.0878
     10  N         13.6280   32.7760  -37.5660 N.3    95  LEU95      -0.1245
     11  CA        14.4550   32.6650  -38.7620 C.3    95  LEU95       0.1561
     12  C         14.3710   31.2630  -39.3630 C.2    95  LEU95       0.2260
     13  O         14.0200   31.1070  -40.5310 O.2    95  LEU95      -0.2867
     14  CB        15.9160   33.0010  -38.4470 C.3    95  LEU95       0.0270
     15  CG        16.8640   33.0300  -39.6520 C.3    95  LEU95       0.0019
     16  CD1       16.5330   34.2170  -40.5470 C.3    95  LEU95       0.0001
     17  CD2       18.2980   33.1310  -39.1710 C.3    95  LEU95       0.0001
     18  N         18.2850   45.9060  -28.0520 N.3   133  ARG133     -0.1231
     19  CA        19.6880   45.8310  -28.4620 C.3   133  ARG133      0.1694
     20  C         20.0430   44.6620  -29.3790 C.2   133  ARG133      0.2592
     21  O         21.0620   44.7050  -30.0600 O.2   133  ARG133     -0.2718
     22  CB        20.6070   45.7980  -27.2280 C.3   133  ARG133      0.0321
     23  CG        21.7560   46.8200  -27.2320 C.3   133  ARG133      0.0489
     24  CD        22.7240   46.6170  -28.3970 C.3   133  ARG133      0.2205
     25  NE        23.2940   45.2720  -28.4380 N.pl3 133  ARG133     -0.0865
     26  CZ        24.3220   44.8580  -27.7050 C.cat 133  ARG133      0.5346
     27  NH1       24.9200   45.6860  -26.8580 N.pl3 133  ARG133      0.1354
     28  NH2       24.7510   43.6070  -27.8170 N.pl3 133  ARG133      0.1354
     29  N         19.2100   43.6270  -29.4060 N.am  134  ASP134     -0.1974
     30  CA        19.4850   42.4630  -30.2430 C.3   134  ASP134      0.1709
     31  C         18.2860   42.0300  -31.0840 C.2   134  ASP134      0.2293
     32  O         18.1080   40.8330  -31.3340 O.2   134  ASP134     -0.2864
     33  CB        19.9080   41.2730  -29.3720 C.3   134  ASP134      0.1436
     34  CG        21.3250   41.3900  -28.8610 C.2   134  ASP134      0.3671
     35  OD1       22.2230   41.6950  -29.6740 O.co2 134  ASP134     -0.2456
     36  OD2       21.5440   41.1580  -27.6530 O.co2 134  ASP134     -0.2456
     37  N         16.3010   35.9850  -35.3980 N.3   138  ARG138     -0.1245
     38  CA        16.8860   34.9920  -34.5020 C.3   138  ARG138      0.1563
     39  C         16.4130   35.1890  -33.0660 C.2   138  ARG138      0.2260
     40  O         16.4940   34.2710  -32.2530 O.2   138  ARG138     -0.2867
     41  CB        18.4190   35.0410  -34.5600 C.3   138  ARG138      0.0307
     42  CG        19.0240   36.4100  -34.2650 C.3   138  ARG138      0.0489
     43  CD        20.5490   36.3590  -34.2470 C.3   138  ARG138      0.2205
     44  NE        21.1310   37.7040  -34.2130 N.pl3 138  ARG138     -0.0865
     45  CZ        21.2690   38.4870  -35.2780 C.cat 138  ARG138      0.5346
     46  NH1       20.8790   38.0630  -36.4720 N.pl3 138  ARG138      0.1354
     47  NH2       21.7760   39.7070  -35.1490 N.pl3 138  ARG138      0.1354
     48  N         37.2340   45.8980  -25.8910 N.3   165  THR165     -0.1218
     49  CA        38.0890   45.2120  -26.8560 C.3   165  THR165      0.1862
     50  C         39.2210   46.1300  -27.3050 C.2   165  THR165      0.2287
     51  O         39.0240   47.3350  -27.4610 O.2   165  THR165     -0.2866
     52  CB        37.2950   44.7680  -28.1150 C.3   165  THR165      0.1770
     53  OG1       38.1910   44.1770  -29.0660 O.3   165  THR165     -0.2211
     54  CG2       36.6000   45.9570  -28.7620 C.3   165  THR165      0.0375
     55  N         40.6790   45.7490  -30.1330 N.3   167  HIS167     -0.1226
     56  CA        40.5490   45.8400  -31.5830 C.3   167  HIS167      0.1752
     57  C         39.8540   47.1500  -31.9190 C.2   167  HIS167      0.2596
     58  O         38.9050   47.5370  -31.2480 O.2   167  HIS167     -0.2718
     59  CB        39.7340   44.6550  -32.1080 C.3   167  HIS167      0.0759
     60  CG        39.7050   44.5500  -33.6020 C.ar  167  HIS167      0.0818
     61  ND1       40.1250   43.4210  -34.2760 N.ar  167  HIS167     -0.2268
     62  CD2       39.3000   45.4260  -34.5510 C.ar  167  HIS167      0.1154
     63  CE1       39.9790   43.6090  -35.5760 C.ar  167  HIS167      0.1986
     64  NE2       39.4810   44.8180  -35.7700 N.ar  167  HIS167     -0.2212
     65  N         40.3330   47.8300  -32.9560 N.am  168  ALA168     -0.1966
     66  CA        39.7560   49.1100  -33.3680 C.3   168  ALA168      0.1728
     67  C         38.2420   49.0100  -33.5220 C.2   168  ALA168      0.2617
     68  O         37.7300   48.0300  -34.0630 O.2   168  ALA168     -0.2715
     69  CB        40.3870   49.5650  -34.6780 C.3   168  ALA168      0.0334
     70  N         37.5310   50.0260  -33.0410 N.am  169  GLY169     -0.1940
     71  CA        36.0820   50.0190  -33.1380 C.3   169  GLY169      0.2014
     72  C         35.4350   49.1010  -32.1170 C.2   169  GLY169      0.2639
     73  O         35.8480   49.0610  -30.9590 O.2   169  GLY169     -0.2714
     74  N         34.4170   48.3630  -32.5440 N.am  170  ALA170     -0.1963
     75  CA        33.7170   47.4340  -31.6620 C.3   170  ALA170      0.1728
     76  C         33.0690   46.3310  -32.4990 C.2   170  ALA170      0.2616
     77  O         32.9830   46.4510  -33.7190 O.2   170  ALA170     -0.2715
     78  CB        32.6560   48.1790  -30.8520 C.3   170  ALA170      0.0334
     79  N         32.6150   45.2580  -31.8580 N.am  171  LYS171     -0.1963
     80  CA        31.9830   44.1620  -32.5910 C.3   171  LYS171      0.1728
     81  C         30.4550   44.3020  -32.5880 C.2   171  LYS171      0.2616
     82  O         29.8680   44.6200  -31.5540 O.2   171  LYS171     -0.2715
     83  CB        32.3730   42.8120  -31.9580 C.3   171  LYS171      0.0311
     84  CG        31.9670   41.6100  -32.7940 C.3   171  LYS171      0.0038
     85  CD        32.4040   40.2730  -32.1740 C.3   171  LYS171      0.0206
     86  CE        31.5250   39.8800  -30.9870 C.3   171  LYS171      0.1093
     87  NZ        31.8640   38.5290  -30.4290 N.3   171  LYS171     -0.1314
     88  N         29.8270   44.0660  -33.7420 N.am  172  PHE172     -0.1960
     89  CA        28.3740   44.1690  -33.8880 C.3   172  PHE172      0.1756
     90  C         27.7970   43.1440  -34.8550 C.2   172  PHE172      0.2461
     91  O         28.5220   42.5270  -35.6410 O.2   172  PHE172     -0.2730
     92  CB        27.9550   45.5190  -34.4980 C.3   172  PHE172      0.0574
     93  CG        28.5840   46.7210  -33.8710 C.ar  172  PHE172     -0.0200
     94  CD1       29.8230   47.1680  -34.3050 C.ar  172  PHE172     -0.0042
     95  CD2       27.8770   47.4870  -32.9520 C.ar  172  PHE172     -0.0042
     96  CE1       30.3460   48.3690  -33.8540 C.ar  172  PHE172     -0.0003
     97  CE2       28.3920   48.6980  -32.4850 C.ar  172  PHE172     -0.0003
     98  CZ        29.6260   49.1430  -32.9420 C.ar  172  PHE172     -0.0000
     99  N         26.4830   42.9130  -34.7740 N.am  173  PRO173     -0.2716
    100  CA        25.8090   41.9800  -35.6860 C.3   173  PRO173      0.1536
    101  C         25.4920   43.0500  -36.7550 C.2   173  PRO173      0.2598
    102  O         24.3750   43.5760  -36.8730 O.2   173  PRO173     -0.2715
    103  CB        24.6160   41.5040  -34.8490 C.3   173  PRO173      0.0310
    104  CG        24.2850   42.7330  -34.0220 C.3   173  PRO173      0.0237
    105  CD        25.6590   43.1800  -33.5770 C.3   173  PRO173      0.0939
    106  N         26.5600   43.4210  -37.4590 N.am  174  ILE174     -0.1964
    107  CA        26.5840   44.4770  -38.4610 C.3   174  ILE174      0.1727
    108  C         25.3550   44.8400  -39.2750 C.2   174  ILE174      0.2616
    109  O         24.9130   45.9920  -39.2520 O.2   174  ILE174     -0.2715
    110  CB        27.7470   44.2450  -39.4670 C.3   174  ILE174      0.0290
    111  CG1       29.0840   44.1640  -38.7330 C.3   174  ILE174      0.0022
    112  CG2       27.7910   45.4070  -40.4720 C.3   174  ILE174      0.0023
    113  CD1       29.5450   45.4490  -38.1230 C.3   174  ILE174      0.0001
    114  N         24.7890   43.8640  -39.9730 N.am  175  LYS175     -0.1963
    115  CA        23.6470   44.1380  -40.8240 C.3   175  LYS175      0.1728
    116  C         22.3120   44.4650  -40.1680 C.2   175  LYS175      0.2616
    117  O         21.3510   44.7830  -40.8670 O.2   175  LYS175     -0.2715
    118  CB        23.4990   42.9860  -41.8230 C.3   175  LYS175      0.0311
    119  CG        24.7510   42.8290  -42.6960 C.3   175  LYS175      0.0038
    120  CD        24.5980   41.7760  -43.7800 C.3   175  LYS175      0.0206
    121  CE        25.8190   41.8030  -44.7010 C.3   175  LYS175      0.1093
    122  NZ        25.6850   40.8610  -45.8490 N.3   175  LYS175     -0.1314
    123  N         22.2570   44.4040  -38.8410 N.am  176  TRP176     -0.1974
    124  CA        21.0430   44.7310  -38.0810 C.3   176  TRP176      0.1640
    125  C         21.2720   45.9920  -37.2510 C.2   176  TRP176      0.2290
    126  O         20.3550   46.4900  -36.5830 O.2   176  TRP176     -0.2864
    127  CB        20.7000   43.5950  -37.1150 C.3   176  TRP176      0.0576
    128  CG        20.0760   42.4010  -37.7510 C.ar  176  TRP176      0.0006
    129  CD1       18.7440   42.1160  -37.8250 C.ar  176  TRP176      0.0946
    130  CD2       20.7540   41.3300  -38.4130 C.ar  176  TRP176      0.0152
    131  NE1       18.5470   40.9300  -38.4910 N.ar  176  TRP176     -0.2442
    132  CE2       19.7650   40.4260  -38.8650 C.ar  176  TRP176      0.0810
    133  CE3       22.1020   41.0450  -38.6720 C.ar  176  TRP176      0.0012
    134  CZ2       20.0820   39.2510  -39.5630 C.ar  176  TRP176      0.0191
    135  CZ3       22.4180   39.8720  -39.3710 C.ar  176  TRP176      0.0001
    136  CH2       21.4090   38.9940  -39.8060 C.ar  176  TRP176      0.0015
    137  N         26.6970   51.8760  -35.0740 N.3   182  LEU182     -0.1231
    138  CA        27.9420   51.3910  -35.6520 C.3   182  LEU182      0.1693
    139  C         29.0490   52.4230  -35.4570 C.2   182  LEU182      0.2591
    140  O         30.1920   52.0700  -35.1820 O.2   182  LEU182     -0.2718
    141  CB        27.7670   51.1270  -37.1470 C.3   182  LEU182      0.0284
    142  CG        26.9520   49.9070  -37.5840 C.3   182  LEU182      0.0019
    143  CD1       26.8160   49.9020  -39.1030 C.3   182  LEU182      0.0001
    144  CD2       27.6390   48.6340  -37.1000 C.3   182  LEU182      0.0001
    145  N         28.7040   53.7000  -35.5980 N.am  183  ALA183     -0.1980
    146  CA        29.6800   54.7720  -35.4590 C.3   183  ALA183      0.1597
    147  C         30.1130   55.0920  -34.0270 C.2   183  ALA183      0.2287
    148  O         31.2770   55.4110  -33.7970 O.2   183  ALA183     -0.2864
    149  CB        29.1540   56.0450  -36.1300 C.3   183  ALA183      0.0319
    150  N         19.4080   36.2240  -45.7120 N.3   209  SER209     -0.1203
    151  CA        20.4050   37.0440  -45.0230 C.3   209  SER209      0.2005
    152  C         20.4390   38.4300  -45.6540 C.2   209  SER209      0.2460
    153  O         20.4650   38.5630  -46.8760 O.2   209  SER209     -0.2732
    154  CB        21.7920   36.4050  -45.1200 C.3   209  SER209      0.2103
    155  OG        21.8410   35.1940  -44.3910 O.3   209  SER209     -0.2182
    156  N         20.4400   39.4850  -44.8260 N.am  210  PRO210     -0.2728
    157  CA        20.4680   40.8800  -45.2830 C.3   210  PRO210      0.1401
    158  C         21.6540   41.2290  -46.1870 C.2   210  PRO210      0.2269
    159  O         22.7060   40.5870  -46.1220 O.2   210  PRO210     -0.2865
    160  CB        20.5120   41.6700  -43.9750 C.3   210  PRO210      0.0296
    161  CG        19.8270   40.7810  -43.0090 C.3   210  PRO210      0.0237
    162  CD        20.3830   39.4220  -43.3560 C.3   210  PRO210      0.0939
    163  N         22.6570   40.7210  -49.2690 N.3   212  PRO212     -0.2102
    164  CA        23.3480   39.5870  -49.8940 C.3   212  PRO212      0.1504
    165  C         24.5230   39.9720  -50.7910 C.2   212  PRO212      0.2576
    166  O         24.4180   40.8710  -51.6260 O.2   212  PRO212     -0.2718
    167  CB        22.2220   38.8690  -50.6450 C.3   212  PRO212      0.0282
    168  CG        21.2810   39.9910  -50.9960 C.3   212  PRO212      0.0208
    169  CD        21.2570   40.8080  -49.7250 C.3   212  PRO212      0.0893
    170  N         25.6440   39.2860  -50.5920 N.am  213  GLY213     -0.1943
    171  CA        26.8430   39.5440  -51.3680 C.3   213  GLY213      0.2014
    172  C         27.6730   40.7100  -50.8550 C.2   213  GLY213      0.2639
    173  O         28.8150   40.8890  -51.2760 O.2   213  GLY213     -0.2714
    174  N         27.1110   41.5050  -49.9460 N.am  214  ILE214     -0.1963
    175  CA        27.8230   42.6570  -49.3960 C.3   214  ILE214      0.1727
    176  C         28.6150   42.3160  -48.1310 C.2   214  ILE214      0.2616
    177  O         28.0370   41.9210  -47.1170 O.2   214  ILE214     -0.2715
    178  CB        26.8390   43.7970  -49.0680 C.3   214  ILE214      0.0290
    179  CG1       25.9940   44.1260  -50.3040 C.3   214  ILE214      0.0022
    180  CG2       27.6000   45.0210  -48.5850 C.3   214  ILE214      0.0023
    181  CD1       26.7980   44.5410  -51.5210 C.3   214  ILE214      0.0001
    182  N         29.9360   42.4740  -48.1850 N.am  215  ASP215     -0.1957
    183  CA        30.7750   42.1760  -47.0240 C.3   215  ASP215      0.1840
    184  C         30.4430   43.1360  -45.8810 C.2   215  ASP215      0.2622
    185  O         30.1400   44.3070  -46.1120 O.2   215  ASP215     -0.2715
    186  CB        32.2590   42.2810  -47.3970 C.3   215  ASP215      0.1450
    187  CG        33.1840   41.9070  -46.2480 C.2   215  ASP215      0.3671
    188  OD1       33.6340   42.8150  -45.5180 O.co2 215  ASP215     -0.2456
    189  OD2       33.4580   40.6990  -46.0700 O.co2 215  ASP215     -0.2456
    190  N         30.4950   42.6320  -44.6520 N.am  216  LEU216     -0.1963
    191  CA        30.1800   43.4380  -43.4710 C.3   216  LEU216      0.1728
    192  C         30.8940   44.7840  -43.4280 C.2   216  LEU216      0.2616
    193  O         30.3370   45.7820  -42.9620 O.2   216  LEU216     -0.2715
    194  CB        30.5430   42.6760  -42.1940 C.3   216  LEU216      0.0311
    195  CG        29.9000   41.3200  -41.9120 C.3   216  LEU216      0.0022
    196  CD1       30.3110   40.8650  -40.5130 C.3   216  LEU216      0.0001
    197  CD2       28.3900   41.4260  -42.0130 C.3   216  LEU216      0.0001
    198  N         32.1300   44.8030  -43.9130 N.am  217  SER217     -0.1950
    199  CA        32.9500   46.0080  -43.8840 C.3   217  SER217      0.1924
    200  C         32.5030   47.1380  -44.8020 C.2   217  SER217      0.2314
    201  O         32.9500   48.2720  -44.6450 O.2   217  SER217     -0.2863
    202  CB        34.3950   45.6490  -44.2280 C.3   217  SER217      0.2116
    203  OG        34.4710   45.1480  -45.5540 O.3   217  SER217     -0.2180
    204  N         28.3390   50.0570  -43.6960 N.3   220  TYR220     -0.1241
    205  CA        28.2020   51.4200  -43.1930 C.3   220  TYR220      0.1605
    206  C         28.2960   52.5000  -44.2640 C.2   220  TYR220      0.2264
    207  O         27.4410   53.3830  -44.3260 O.2   220  TYR220     -0.2867
    208  CB        29.2380   51.7170  -42.1100 C.3   220  TYR220      0.0534
    209  CG        29.0960   53.1060  -41.5250 C.ar  220  TYR220     -0.0201
    210  CD1       28.1630   53.3710  -40.5260 C.ar  220  TYR220     -0.0009
    211  CD2       29.8900   54.1560  -41.9800 C.ar  220  TYR220     -0.0009
    212  CE1       28.0260   54.6460  -39.9870 C.ar  220  TYR220      0.0417
    213  CE2       29.7610   55.4400  -41.4510 C.ar  220  TYR220      0.0417
    214  CZ        28.8320   55.6740  -40.4530 C.ar  220  TYR220      0.1957
    215  OH        28.7290   56.9250  -39.8950 O.3   220  TYR220     -0.2866
@<TRIPOS>BOND
     1   166   165    2
     2   181   179    1
     3   171   172    1
     4   171   170    1
     5   173   172    2
     6   168   167    1
     7   168   169    1
     8   172   174   am
     9   165   170   am
    10   165   164    1
    11   167   164    1
    12   179   178    1
    13   174   175    1
    14   164   163    1
    15   169   163    1
    16   175   178    1
    17   175   176    1
    18   178   180    1
    19   182   176   am
    20   182   183    1
    21   176   177    2
    22   186   183    1
    23   186   187    1
    24   183   184    1
    25   153   152    2
    26   187   189   ar
    27   187   188   ar
    28   158   159    2
    29   158   157    1
    30   185   184    2
    31   184   190   am
    32   122   121    1
    33   150   151    1
    34   152   151    1
    35   152   156   am
    36   203   202    1
    37   157   156    1
    38   157   160    1
    39   154   151    1
    40   154   155    1
    41   156   162    1
    42   200   201    2
    43   200   199    1
    44   121   120    1
    45   190   191    1
    46   207   206    2
    47   206   205    1
    48   202   199    1
    49   160   161    1
    50   198   199    1
    51   198   192   am
    52   120   119    1
    53   204   205    1
    54   191   192    1
    55   191   194    1
    56   192   193    2
    57   162   161    1
    58   205   208    1
    59   119   118    1
    60   194   195    1
    61   208   209    1
    62   197   195    1
    63   211   209   ar
    64   211   213   ar
    65   195   196    1
    66   118   115    1
    67   209   210   ar
    68   213   214   ar
    69   117   116    2
    70   115   116    1
    71   115   114    1
    72    16    15    1
    73    13    12    2
    74   210   212   ar
    75   112   110    1
    76   214   212   ar
    77   214   215    1
    78   116   123   am
    79   114   108   am
    80   136   134   ar
    81   136   135   ar
    82    15    17    1
    83    15    14    1
    84   134   132   ar
    85   110   111    1
    86   110   107    1
    87   135   133   ar
    88    12    11    1
    89   108   109    2
    90   108   107    1
    91   143   142    1
    92   132   131   ar
    93   132   130   ar
    94   123   124    1
    95    11    14    1
    96    11    10    1
    97   111   113    1
    98   133   130   ar
    99   131   129   ar
   100   107   106    1
   101   130   128   ar
   102   124   125    1
   103   124   127    1
   104   129   128   ar
   105   128   127    1
   106   142   141    1
   107   142   144    1
   108   106   101   am
   109   125   126    2
   110   141   138    1
   111   102   101    2
   112   101   100    1
   113    46    45    1
   114   149   146    1
   115    64    63   ar
   116    64    62   ar
   117   100   103    1
   118   100    99    1
   119   138   139    1
   120   138   137    1
   121    91    90    2
   122   145   146    1
   123   145   139   am
   124    63    61   ar
   125   146   147    1
   126   139   140    2
   127    37    38    1
   128    45    47    1
   129    45    44    2
   130    90    99   am
   131    90    89    1
   132   103   104    1
   133    99   105    1
   134    69    66    1
   135    41    38    1
   136    41    42    1
   137    62    60   ar
   138    38    39    1
   139    92    89    1
   140    92    93    1
   141    94    93   ar
   142    94    96   ar
   143    61    60   ar
   144    42    43    1
   145    43    44    1
   146    68    67    2
   147   147   148    2
   148   104   105    1
   149    89    88    1
   150    93    95   ar
   151    96    98   ar
   152    88    81   am
   153    77    76    2
   154    60    59    1
   155    67    66    1
   156    67    70   am
   157    66    65    1
   158    71    70    1
   159    71    72    1
   160    39    40    2
   161    65    57   am
   162    95    97   ar
   163    98    97   ar
   164    84    85    1
   165    84    83    1
   166    80    81    1
   167    80    83    1
   168    80    79    1
   169    81    82    2
   170    74    72   am
   171    74    75    1
   172    76    79   am
   173    76    75    1
   174    85    86    1
   175    72    73    2
   176    59    56    1
   177    57    56    1
   178    57    58    2
   179    75    78    1
   180    56    55    1
   181    32    31    2
   182     9     7   am
   183    31    30    1
   184    86    87    1
   185     7     6    1
   186     7     8    2
   187    30    29    1
   188    30    33    1
   189    21    20    2
   190     6     5    1
   191    35    34   ar
   192    29    20   am
   193    20    19    1
   194    33    34    1
   195    53    52    1
   196    34    36   ar
   197    54    52    1
   198     1     2    1
   199     5     2    1
   200    19    18    1
   201    19    22    1
   202    25    24    1
   203    25    26    2
   204    24    23    1
   205    52    49    1
   206     2     3    1
   207    28    26    1
   208    26    27    1
   209    51    50    2
   210    50    49    1
   211    23    22    1
   212    49    48    1
   213     3     4    2
