@<TRIPOS>MOLECULE
tmp/2g1tC00.pdb
 168 167 0 0 0
SMALL
GASTEIGER

@<TRIPOS>ATOM
      1  N          5.4790    3.8040    6.4670 N.3    21  GLN21      -0.1231
      2  CA         4.3930    3.0550    7.0730 C.3    21  GLN21       0.1698
      3  C          4.4070    2.9710    8.5930 C.2    21  GLN21       0.2592
      4  O          3.3570    2.7970    9.2070 O.2    21  GLN21      -0.2718
      5  CB         4.3620    1.6380    6.4960 C.3    21  GLN21       0.0381
      6  CG         3.9690    1.5780    5.0290 C.3    21  GLN21       0.0905
      7  CD         2.5090    1.9250    4.7990 C.2    21  GLN21       0.2608
      8  OE1        1.6130    1.3010    5.3730 O.2    21  GLN21      -0.2717
      9  NE2        2.2600    2.9210    3.9530 N.am   21  GLN21      -0.0878
     10  N          5.5790    3.0940    9.2060 N.am   22  TYR22      -0.1976
     11  CA         5.6670    2.9740   10.6550 C.3    22  TYR22       0.1639
     12  C          5.5810    4.2850   11.4150 C.2    22  TYR22       0.2290
     13  O          5.2790    4.2960   12.6070 O.2    22  TYR22      -0.2864
     14  CB         6.9520    2.2450   11.0350 C.3    22  TYR22       0.0560
     15  CG         7.0970    0.9280   10.3170 C.ar   22  TYR22      -0.0198
     16  CD1        7.8880    0.8170    9.1720 C.ar   22  TYR22      -0.0009
     17  CD2        6.3920   -0.1940   10.7440 C.ar   22  TYR22      -0.0009
     18  CE1        7.9720   -0.3820    8.4730 C.ar   22  TYR22       0.0417
     19  CE2        6.4660   -1.3950   10.0530 C.ar   22  TYR22       0.0417
     20  CZ         7.2570   -1.4820    8.9210 C.ar   22  TYR22       0.1957
     21  OH         7.3340   -2.6730    8.2450 O.3    22  TYR22      -0.2866
     22  N         12.0700   -5.6130    5.3020 N.3   132  ASP132     -0.1239
     23  CA        11.7750   -4.4050    4.5310 C.3   132  ASP132      0.1674
     24  C         12.9740   -3.9190    3.7270 C.2   132  ASP132      0.2266
     25  O         13.1410   -2.7090    3.5290 O.2   132  ASP132     -0.2867
     26  CB        11.3310   -3.2760    5.4640 C.3   132  ASP132      0.1410
     27  CG         9.9240   -3.4620    5.9800 C.2   132  ASP132      0.3668
     28  OD1        9.6690   -3.0830    7.1380 O.co2 132  ASP132     -0.2456
     29  OD2        9.0750   -3.9740    5.2270 O.co2 132  ASP132     -0.2456
     30  N         14.9660    2.2850   -0.2720 N.3   136  ARG136     -0.1245
     31  CA        14.4220    3.2690    0.6670 C.3   136  ARG136      0.1563
     32  C         14.9140    3.0220    2.0980 C.2   136  ARG136      0.2260
     33  O         14.8820    3.9210    2.9420 O.2   136  ARG136     -0.2867
     34  CB        12.8910    3.2640    0.6320 C.3   136  ARG136      0.0307
     35  CG        12.2500    1.8910    0.7580 C.3   136  ARG136      0.0489
     36  CD        10.7250    1.9900    0.8090 C.3   136  ARG136      0.2205
     37  NE        10.0950    0.6680    0.7870 N.pl3 136  ARG136     -0.0865
     38  CZ         9.9460   -0.0810   -0.3020 C.cat 136  ARG136      0.5346
     39  NH1       10.3680    0.3530   -1.4820 N.pl3 136  ARG136      0.1354
     40  NH2        9.3900   -1.2830   -0.2080 N.pl3 136  ARG136      0.1354
     41  N         -6.0220   -8.7650    9.2940 N.3   163  THR163     -0.1218
     42  CA        -6.8550   -8.0960    8.2900 C.3   163  THR163      0.1862
     43  C         -7.9870   -9.0130    7.8240 C.2   163  THR163      0.2287
     44  O         -7.7890  -10.2160    7.6620 O.2   163  THR163     -0.2866
     45  CB        -6.0180   -7.6740    7.0620 C.3   163  THR163      0.1770
     46  OG1       -6.8270   -6.8960    6.1720 O.3   163  THR163     -0.2211
     47  CG2       -5.4960   -8.9070    6.3200 C.3   163  THR163      0.0375
     48  N         -9.6800   -8.2790    5.0280 N.3   165  HIS165     -0.1226
     49  CA        -9.5630   -8.1870    3.5780 C.3   165  HIS165      0.1752
     50  C         -8.8580   -9.4110    2.9880 C.2   165  HIS165      0.2596
     51  O         -8.0430  -10.0510    3.6520 O.2   165  HIS165     -0.2718
     52  CB        -8.8040   -6.9080    3.2120 C.3   165  HIS165      0.0759
     53  CG        -8.6690   -6.6770    1.7400 C.ar  165  HIS165      0.0818
     54  ND1       -7.8700   -7.4580    0.9320 N.ar  165  HIS165     -0.2268
     55  CD2       -9.2240   -5.7450    0.9300 C.ar  165  HIS165      0.1154
     56  CE1       -7.9370   -7.0160   -0.3110 C.ar  165  HIS165      0.1986
     57  NE2       -8.7520   -5.9760   -0.3400 N.ar  165  HIS165     -0.2212
     58  N         -9.1950   -9.7170    1.7370 N.am  166  ALA166     -0.1966
     59  CA        -8.6490  -10.8450    0.9800 C.3   166  ALA166      0.1728
     60  C         -7.4910  -11.6060    1.6200 C.2   166  ALA166      0.2617
     61  O         -7.7040  -12.5600    2.3680 O.2   166  ALA166     -0.2715
     62  CB        -8.2410  -10.3730   -0.4120 C.3   166  ALA166      0.0334
     63  N         -6.2660  -11.1910    1.3090 N.am  167  GLY167     -0.1940
     64  CA        -5.0990  -11.8620    1.8570 C.3   167  GLY167      0.2014
     65  C         -4.3170  -11.0120    2.8400 C.2   167  GLY167      0.2639
     66  O         -4.5530  -11.0780    4.0460 O.2   167  GLY167     -0.2714
     67  N         -3.3770  -10.2230    2.3280 N.am  168  ALA168     -0.1963
     68  CA        -2.5660   -9.3490    3.1700 C.3   168  ALA168      0.1728
     69  C         -1.9680   -8.1900    2.3690 C.2   168  ALA168      0.2616
     70  O         -2.0080   -8.1890    1.1390 O.2   168  ALA168     -0.2715
     71  CB        -1.4580  -10.1450    3.8380 C.3   168  ALA168      0.0334
     72  N         -1.4080   -7.2120    3.0710 N.am  169  LYS169     -0.1963
     73  CA        -0.8090   -6.0390    2.4360 C.3   169  LYS169      0.1728
     74  C          0.7250   -6.1010    2.4490 C.2   169  LYS169      0.2616
     75  O          1.3180   -6.3980    3.4830 O.2   169  LYS169     -0.2715
     76  CB        -1.2750   -4.7850    3.1850 C.3   169  LYS169      0.0311
     77  CG        -0.6200   -3.4920    2.7530 C.3   169  LYS169      0.0038
     78  CD        -0.9870   -2.3920    3.7400 C.3   169  LYS169      0.0206
     79  CE        -0.2510   -1.0910    3.4600 C.3   169  LYS169      0.1093
     80  NZ        -0.5180   -0.0920    4.5360 N.3   169  LYS169     -0.1314
     81  N          1.3540   -5.8240    1.3060 N.am  170  PHE170     -0.1960
     82  CA         2.8120   -5.8660    1.2030 C.3   170  PHE170      0.1756
     83  C          3.3700   -4.8740    0.1960 C.2   170  PHE170      0.2461
     84  O          2.6400   -4.3020   -0.6200 O.2   170  PHE170     -0.2730
     85  CB         3.3280   -7.2320    0.7130 C.3   170  PHE170      0.0574
     86  CG         2.5750   -8.4280    1.2270 C.ar  170  PHE170     -0.0200
     87  CD1        1.3210   -8.7390    0.7210 C.ar  170  PHE170     -0.0042
     88  CD2        3.1780   -9.3210    2.1120 C.ar  170  PHE170     -0.0042
     89  CE1        0.6770   -9.9220    1.0690 C.ar  170  PHE170     -0.0003
     90  CE2        2.5400  -10.5140    2.4710 C.ar  170  PHE170     -0.0003
     91  CZ         1.2840  -10.8130    1.9400 C.ar  170  PHE170     -0.0000
     92  N          4.6810   -4.6220    0.2670 N.am  171  PRO171     -0.2716
     93  CA         5.3340   -3.7110   -0.6810 C.3   171  PRO171      0.1536
     94  C          5.6240   -4.7240   -1.7970 C.2   171  PRO171      0.2598
     95  O          6.7440   -5.2050   -1.9760 O.2   171  PRO171     -0.2715
     96  CB         6.5780   -3.2640    0.0830 C.3   171  PRO171      0.0310
     97  CG         6.8890   -4.4690    0.9730 C.3   171  PRO171      0.0237
     98  CD         5.5190   -4.8440    1.4640 C.3   171  PRO171      0.0939
     99  N          4.5510   -5.0710   -2.4960 N.am  172  ILE172     -0.1964
    100  CA         4.5240   -6.0560   -3.5720 C.3   172  ILE172      0.1727
    101  C          5.7660   -6.3120   -4.4070 C.2   172  ILE172      0.2616
    102  O          6.2390   -7.4470   -4.4860 O.2   172  ILE172     -0.2715
    103  CB         3.3770   -5.7390   -4.5650 C.3   172  ILE172      0.0290
    104  CG1        2.0370   -5.6800   -3.8310 C.3   172  ILE172      0.0022
    105  CG2        3.3170   -6.8090   -5.6430 C.3   172  ILE172      0.0023
    106  CD1        1.5260   -7.0260   -3.3440 C.3   172  ILE172      0.0001
    107  N          6.2880   -5.2690   -5.0400 N.am  173  LYS173     -0.1963
    108  CA         7.4340   -5.4380   -5.9300 C.3   173  LYS173      0.1728
    109  C          8.7790   -5.8210   -5.3240 C.2   173  LYS173      0.2616
    110  O          9.7360   -6.0880   -6.0530 O.2   173  LYS173     -0.2715
    111  CB         7.5650   -4.1950   -6.8170 C.3   173  LYS173      0.0311
    112  CG         6.4010   -4.0790   -7.8010 C.3   173  LYS173      0.0038
    113  CD         6.4750   -2.8250   -8.6480 C.3   173  LYS173      0.0206
    114  CE         5.3750   -2.8340   -9.7100 C.3   173  LYS173      0.1093
    115  NZ         5.3390   -1.5600  -10.4760 N.3   173  LYS173     -0.1314
    116  N          8.8390   -5.8680   -3.9970 N.am  174  TRP174     -0.1974
    117  CA        10.0520   -6.2490   -3.2770 C.3   174  TRP174      0.1640
    118  C          9.8160   -7.5650   -2.5240 C.2   174  TRP174      0.2290
    119  O         10.7440   -8.1370   -1.9480 O.2   174  TRP174     -0.2864
    120  CB        10.4190   -5.1580   -2.2600 C.3   174  TRP174      0.0576
    121  CG        11.0700   -3.9500   -2.8600 C.ar  174  TRP174      0.0006
    122  CD1       12.4060   -3.7260   -2.9920 C.ar  174  TRP174      0.0946
    123  CD2       10.4120   -2.8110   -3.4310 C.ar  174  TRP174      0.0152
    124  NE1       12.6280   -2.5170   -3.6130 N.ar  174  TRP174     -0.2442
    125  CE2       11.4190   -1.9350   -3.8920 C.ar  174  TRP174      0.0810
    126  CE3        9.0690   -2.4480   -3.6000 C.ar  174  TRP174      0.0012
    127  CZ2       11.1270   -0.7130   -4.5120 C.ar  174  TRP174      0.0191
    128  CZ3        8.7760   -1.2300   -4.2200 C.ar  174  TRP174      0.0001
    129  CH2        9.8050   -0.3790   -4.6670 C.ar  174  TRP174      0.0015
    130  N          4.3730  -13.5020   -0.5150 N.3   180  LEU180     -0.1231
    131  CA         3.1120  -12.9530   -1.0000 C.3   180  LEU180      0.1693
    132  C          1.9810  -13.9570   -0.8030 C.2   180  LEU180      0.2591
    133  O          0.8840  -13.6030   -0.3740 O.2   180  LEU180     -0.2718
    134  CB         3.2210  -12.5950   -2.4870 C.3   180  LEU180      0.0284
    135  CG         4.0260  -11.3360   -2.8280 C.3   180  LEU180      0.0019
    136  CD1        4.2480  -11.2340   -4.3350 C.3   180  LEU180      0.0001
    137  CD2        3.2850  -10.1170   -2.3090 C.3   180  LEU180      0.0001
    138  N          2.2630  -15.2170   -1.1040 N.am  181  ALA181     -0.1980
    139  CA         1.2600  -16.2680   -0.9970 C.3   181  ALA181      0.1597
    140  C          0.9410  -16.7200    0.4250 C.2   181  ALA181      0.2287
    141  O         -0.2220  -16.9630    0.7510 O.2   181  ALA181     -0.2864
    142  CB         1.6900  -17.4700   -1.8330 C.3   181  ALA181      0.0319
    143  N          0.5590   -3.4490   -9.5140 N.3   214  LEU214     -0.1231
    144  CA         0.8870   -4.3730   -8.4290 C.3   214  LEU214      0.1693
    145  C          0.1220   -5.6840   -8.4910 C.2   214  LEU214      0.2592
    146  O          0.6590   -6.7360   -8.1540 O.2   214  LEU214     -0.2718
    147  CB         0.6150   -3.7220   -7.0720 C.3   214  LEU214      0.0284
    148  CG         1.3290   -2.4110   -6.7420 C.3   214  LEU214      0.0019
    149  CD1        1.0160   -2.0250   -5.3040 C.3   214  LEU214      0.0001
    150  CD2        2.8280   -2.5660   -6.9360 C.3   214  LEU214      0.0001
    151  N         -1.1330   -5.6220   -8.9170 N.am  215  SER215     -0.1952
    152  CA        -1.9650   -6.8170   -8.9840 C.3   215  SER215      0.1924
    153  C         -1.5270   -7.8570  -10.0130 C.2   215  SER215      0.2314
    154  O         -1.9610   -9.0050   -9.9500 O.2   215  SER215     -0.2863
    155  CB        -3.4170   -6.4210   -9.2560 C.3   215  SER215      0.2116
    156  OG        -3.5320   -5.7480  -10.4960 O.3   215  SER215     -0.2180
    157  N          2.5430  -11.0340   -9.1730 N.3   218  TYR218     -0.1241
    158  CA         2.6470  -12.4410   -8.7900 C.3   218  TYR218      0.1605
    159  C          2.4780  -13.4140   -9.9540 C.2   218  TYR218      0.2264
    160  O          3.2700  -14.3450  -10.1080 O.2   218  TYR218     -0.2867
    161  CB         1.6280  -12.7850   -7.7000 C.3   218  TYR218      0.0534
    162  CG         1.8180  -14.1780   -7.1310 C.ar  218  TYR218     -0.0201
    163  CD1        2.7670  -14.4220   -6.1420 C.ar  218  TYR218     -0.0009
    164  CD2        1.0600  -15.2550   -7.5980 C.ar  218  TYR218     -0.0009
    165  CE1        2.9560  -15.7060   -5.6260 C.ar  218  TYR218      0.0417
    166  CE2        1.2430  -16.5430   -7.0900 C.ar  218  TYR218      0.0417
    167  CZ         2.1910  -16.7580   -6.1040 C.ar  218  TYR218      0.1957
    168  OH         2.3640  -18.0220   -5.5830 O.3   218  TYR218     -0.2866
@<TRIPOS>BOND
     1   156   155    1
     2   115   114    1
     3   160   159    2
     4   153   154    2
     5   153   152    1
     6   159   158    1
     7   114   113    1
     8   143   144    1
     9   155   152    1
    10   157   158    1
    11   152   151    1
    12   151   145   am
    13   158   161    1
    14   113   112    1
    15   145   144    1
    16   145   146    2
    17   144   147    1
    18   112   111    1
    19   161   162    1
    20   164   162   ar
    21   164   166   ar
    22   162   163   ar
    23   166   167   ar
    24   147   148    1
    25   150   148    1
    26   111   108    1
    27   148   149    1
    28   163   165   ar
    29   167   165   ar
    30   167   168    1
    31   110   109    2
    32   108   109    1
    33   108   107    1
    34   105   103    1
    35   109   116   am
    36   107   101   am
    37   129   127   ar
    38   129   128   ar
    39   103   104    1
    40   103   100    1
    41   127   125   ar
    42   102   101    2
    43   101   100    1
    44   136   135    1
    45   128   126   ar
    46   116   117    1
    47   125   124   ar
    48   125   123   ar
    49   104   106    1
    50   124   122   ar
    51   126   123   ar
    52   100    99    1
    53   123   121   ar
    54   117   118    1
    55   117   120    1
    56   122   121   ar
    57   121   120    1
    58   135   134    1
    59   135   137    1
    60   118   119    2
    61    99    94   am
    62   134   131    1
    63    95    94    2
    64   142   139    1
    65    94    93    1
    66    39    38    1
    67   138   139    1
    68   138   132   am
    69   131   132    1
    70   131   130    1
    71   139   140    1
    72   132   133    2
    73    93    96    1
    74    93    92    1
    75    84    83    2
    76    62    59    1
    77    57    56   ar
    78    57    55   ar
    79    56    54   ar
    80    38    40    1
    81    38    37    2
    82    30    31    1
    83    96    97    1
    84    83    92   am
    85    83    82    1
    86    92    98    1
    87   140   141    2
    88    34    31    1
    89    34    35    1
    90    31    32    1
    91    85    82    1
    92    85    86    1
    93    87    89   ar
    94    87    86   ar
    95    35    36    1
    96    37    36    1
    97    55    53   ar
    98    54    53   ar
    99    97    98    1
   100    59    60    1
   101    59    58    1
   102    89    91   ar
   103    70    69    2
   104    82    81    1
   105    86    88   ar
   106    81    74   am
   107    63    60   am
   108    63    64    1
   109    60    61    2
   110    58    50   am
   111    53    52    1
   112    64    65    1
   113    91    90   ar
   114    32    33    2
   115    88    90   ar
   116    67    65   am
   117    67    68    1
   118    69    72   am
   119    69    68    1
   120    73    74    1
   121    73    72    1
   122    73    76    1
   123    74    75    2
   124    77    76    1
   125    77    78    1
   126    65    66    2
   127    50    49    1
   128    50    51    2
   129    68    71    1
   130    52    49    1
   131    79    78    1
   132    79    80    1
   133    25    24    2
   134    49    48    1
   135    24    23    1
   136     9     7   am
   137    23    22    1
   138    23    26    1
   139     7     6    1
   140     7     8    2
   141     6     5    1
   142    29    27   ar
   143    26    27    1
   144    27    28   ar
   145    46    45    1
   146    47    45    1
   147     1     2    1
   148     5     2    1
   149    45    42    1
   150     2     3    1
   151    44    43    2
   152    43    42    1
   153    21    20    1
   154    42    41    1
   155    18    20   ar
   156    18    16   ar
   157     3    10   am
   158     3     4    2
   159    20    19   ar
   160    16    15   ar
   161    10    11    1
   162    19    17   ar
   163    15    17   ar
   164    15    14    1
   165    11    14    1
   166    11    12    1
   167    12    13    2
