@<TRIPOS>MOLECULE
tmp/2g1tA00.pdb
 175 172 0 0 0
SMALL
GASTEIGER

@<TRIPOS>ATOM
      1  N          6.0860    7.7020  -41.6410 N.3    21  GLN21      -0.1245
      2  CA         7.1660    6.8980  -42.2070 C.3    21  GLN21       0.1566
      3  C          7.1750    6.7800  -43.7300 C.2    21  GLN21       0.2260
      4  O          8.2250    6.5340  -44.3230 O.2    21  GLN21      -0.2867
      5  CB         7.1220    5.4790  -41.6300 C.3    21  GLN21       0.0367
      6  CG         7.4150    5.3660  -40.1420 C.3    21  GLN21       0.0905
      7  CD         8.9000    5.4120  -39.8230 C.2    21  GLN21       0.2608
      8  OE1        9.6950    4.6690  -40.4060 O.2    21  GLN21      -0.2717
      9  NE2        9.2800    6.2710  -38.8870 N.am   21  GLN21      -0.0878
     10  N         -6.7810    9.6410  -33.2650 N.3    93  LEU93      -0.1245
     11  CA        -5.9950    9.8070  -32.0490 C.3    93  LEU93       0.1561
     12  C         -6.1000   11.2380  -31.5180 C.2    93  LEU93       0.2260
     13  O         -6.4250   11.4560  -30.3470 O.2    93  LEU93      -0.2867
     14  CB        -4.5260    9.4800  -32.3260 C.3    93  LEU93       0.0270
     15  CG        -3.5970    9.4880  -31.1080 C.3    93  LEU93       0.0019
     16  CD1       -4.0120    8.3840  -30.1490 C.3    93  LEU93       0.0001
     17  CD2       -2.1620    9.2810  -31.5570 C.3    93  LEU93       0.0001
     18  N         -1.7370   -3.9390  -41.9070 N.3   131  ARG131     -0.1231
     19  CA        -0.3880   -3.8530  -41.3590 C.3   131  ARG131      0.1694
     20  C         -0.0220   -2.5920  -40.5750 C.2   131  ARG131      0.2592
     21  O          1.0580   -2.5300  -39.9840 O.2   131  ARG131     -0.2718
     22  CB         0.6590   -4.1010  -42.4500 C.3   131  ARG131      0.0321
     23  CG         1.6820   -5.1520  -42.0330 C.3   131  ARG131      0.0489
     24  CD         3.0990   -4.6430  -42.1720 C.3   131  ARG131      0.2205
     25  NE         3.3050   -3.3880  -41.4530 N.pl3 131  ARG131     -0.0865
     26  CZ         4.4130   -2.6610  -41.5380 C.cat 131  ARG131      0.5346
     27  NH1        5.4130   -3.0680  -42.3080 N.pl3 131  ARG131      0.1354
     28  NH2        4.5190   -1.5200  -40.8670 N.pl3 131  ARG131      0.1354
     29  N         -0.9080   -1.5980  -40.5500 N.am  132  ASP132     -0.1974
     30  CA        -0.6360   -0.3750  -39.7900 C.3   132  ASP132      0.1709
     31  C         -1.8870    0.0910  -39.0710 C.2   132  ASP132      0.2293
     32  O         -2.1090    1.2950  -38.9210 O.2   132  ASP132     -0.2864
     33  CB        -0.1600    0.7590  -40.7020 C.3   132  ASP132      0.1436
     34  CG         1.2360    0.5410  -41.2260 C.2   132  ASP132      0.3671
     35  OD1        2.0940    0.0760  -40.4490 O.co2 132  ASP132     -0.2456
     36  OD2        1.4780    0.8560  -42.4110 O.co2 132  ASP132     -0.2456
     37  N         -3.9080    6.2630  -35.2440 N.3   136  ARG136     -0.1245
     38  CA        -3.2960    7.2310  -36.1510 C.3   136  ARG136      0.1563
     39  C         -3.7310    6.9820  -37.5880 C.2   136  ARG136      0.2260
     40  O         -3.6730    7.8840  -38.4190 O.2   136  ARG136     -0.2867
     41  CB        -1.7630    7.1930  -36.0450 C.3   136  ARG136      0.0307
     42  CG        -1.1470    5.8070  -36.2130 C.3   136  ARG136      0.0489
     43  CD         0.3770    5.8420  -36.1110 C.3   136  ARG136      0.2205
     44  NE         0.9440    4.4920  -36.0610 N.pl3 136  ARG136     -0.0865
     45  CZ         1.0300    3.7560  -34.9570 C.cat 136  ARG136      0.5346
     46  NH1        0.6000    4.2350  -33.7950 N.pl3 136  ARG136      0.1354
     47  NH2        1.5150    2.5220  -35.0170 N.pl3 136  ARG136      0.1354
     48  N         18.4180   -3.3820  -43.1250 N.3   163  THR163     -0.1218
     49  CA        19.2980   -2.5400  -42.3290 C.3   163  THR163      0.1862
     50  C         20.3910   -3.3940  -41.6950 C.2   163  THR163      0.2287
     51  O         20.1900   -4.5840  -41.4490 O.2   163  THR163     -0.2866
     52  CB        18.5260   -1.8340  -41.1970 C.3   163  THR163      0.1770
     53  OG1       19.4500   -1.1510  -40.3470 O.3   163  THR163     -0.2211
     54  CG2       17.7460   -2.8450  -40.3650 C.3   163  THR163      0.0375
     55  N         21.4170   -2.9260  -38.7850 N.3   165  HIS165     -0.1226
     56  CA        21.1290   -2.9780  -37.3570 C.3   165  HIS165      0.1752
     57  C         20.6780   -4.3830  -36.9870 C.2   165  HIS165      0.2596
     58  O         20.2560   -5.1600  -37.8450 O.2   165  HIS165     -0.2718
     59  CB        20.0130   -1.9940  -36.9930 C.3   165  HIS165      0.0759
     60  CG        20.4430   -0.5620  -36.9870 C.ar  165  HIS165      0.0818
     61  ND1       19.5690    0.4750  -36.7400 N.ar  165  HIS165     -0.2268
     62  CD2       21.6560    0.0050  -37.1800 C.ar  165  HIS165      0.1154
     63  CE1       20.2260    1.6200  -36.7820 C.ar  165  HIS165      0.1986
     64  NE2       21.4940    1.3630  -37.0470 N.ar  165  HIS165     -0.2212
     65  N         20.7860   -4.7220  -35.7110 N.am  166  ALA166     -0.1966
     66  CA        20.3250   -6.0240  -35.2620 C.3   166  ALA166      0.1728
     67  C         18.8110   -5.8410  -35.1390 C.2   166  ALA166      0.2617
     68  O         18.3380   -4.7370  -34.8790 O.2   166  ALA166     -0.2715
     69  CB        20.9390   -6.3670  -33.9050 C.3   166  ALA166      0.0334
     70  N         18.0500   -6.9050  -35.3510 N.am  167  GLY167     -0.1940
     71  CA        16.6040   -6.7890  -35.2430 C.3   167  GLY167      0.2014
     72  C         15.9760   -5.8770  -36.2880 C.2   167  GLY167      0.2639
     73  O         16.6530   -5.3990  -37.2050 O.2   167  GLY167     -0.2714
     74  N         14.6770   -5.6290  -36.1410 N.am  168  ALA168     -0.1963
     75  CA        13.9340   -4.7910  -37.0740 C.3   168  ALA168      0.1728
     76  C         13.1390   -3.6930  -36.3670 C.2   168  ALA168      0.2616
     77  O         12.9180   -3.7480  -35.1590 O.2   168  ALA168     -0.2715
     78  CB        12.9990   -5.6560  -37.9030 C.3   168  ALA168      0.0334
     79  N         12.6960   -2.7100  -37.1440 N.am  169  LYS169     -0.1963
     80  CA        11.9310   -1.5710  -36.6430 C.3   169  LYS169      0.1728
     81  C         10.4330   -1.8210  -36.7420 C.2   169  LYS169      0.2616
     82  O          9.9060   -2.1840  -37.7980 O.2   169  LYS169     -0.2715
     83  CB        12.3130   -0.3360  -37.4540 C.3   169  LYS169      0.0311
     84  CG        11.6810    0.9660  -37.0140 C.3   169  LYS169      0.0038
     85  CD        12.0960    2.0870  -37.9750 C.3   169  LYS169      0.0206
     86  CE        11.6160    3.4520  -37.5060 C.3   169  LYS169      0.1093
     87  NZ        12.0930    4.5420  -38.4120 N.3   169  LYS169     -0.1314
     88  N          9.7510   -1.6380  -35.6210 N.am  170  PHE170     -0.1960
     89  CA         8.3050   -1.8370  -35.5900 C.3   170  PHE170      0.1756
     90  C          7.5930   -0.8290  -34.7000 C.2   170  PHE170      0.2461
     91  O          8.2200   -0.2040  -33.8440 O.2   170  PHE170     -0.2730
     92  CB         7.8600   -3.1590  -34.9660 C.3   170  PHE170      0.0574
     93  CG         8.4920   -4.3900  -35.5170 C.ar  170  PHE170     -0.0200
     94  CD1        9.7630   -4.7570  -35.1140 C.ar  170  PHE170     -0.0042
     95  CD2        7.7840   -5.2470  -36.3580 C.ar  170  PHE170     -0.0042
     96  CE1       10.3320   -5.9570  -35.5260 C.ar  170  PHE170     -0.0003
     97  CE2        8.3450   -6.4580  -36.7830 C.ar  170  PHE170     -0.0003
     98  CZ         9.6290   -6.8130  -36.3610 C.ar  170  PHE170     -0.0000
     99  N          6.2660   -0.6810  -34.8960 N.am  171  PRO171     -0.2716
    100  CA         5.4800    0.2350  -34.0730 C.3   171  PRO171      0.1536
    101  C          5.1430   -0.8050  -33.0280 C.2   171  PRO171      0.2598
    102  O          4.0440   -1.3480  -33.0090 O.2   171  PRO171     -0.2715
    103  CB         4.2840    0.5770  -34.9370 C.3   171  PRO171      0.0310
    104  CG         4.1440   -0.5790  -35.8290 C.3   171  PRO171      0.0237
    105  CD         5.5620   -0.9840  -36.1470 C.3   171  PRO171      0.0939
    106  N          6.1550   -1.1290  -32.2230 N.am  172  ILE172     -0.1964
    107  CA         6.1120   -2.1860  -31.2240 C.3   172  ILE172      0.1727
    108  C          4.8620   -2.4820  -30.4210 C.2   172  ILE172      0.2616
    109  O          4.4320   -3.6360  -30.3820 O.2   172  ILE172     -0.2715
    110  CB         7.3360   -2.0530  -30.2510 C.3   172  ILE172      0.0290
    111  CG1        8.6290   -2.3810  -31.0110 C.3   172  ILE172      0.0022
    112  CG2        7.1680   -3.0090  -29.0620 C.3   172  ILE172      0.0023
    113  CD1        9.8690   -2.3830  -30.1490 C.3   172  ILE172      0.0001
    114  N          4.2500   -1.4670  -29.8210 N.am  173  LYS173     -0.1963
    115  CA         3.0920   -1.7150  -28.9820 C.3   173  LYS173      0.1728
    116  C          1.7990   -2.0830  -29.6970 C.2   173  LYS173      0.2616
    117  O          0.8090   -2.4040  -29.0440 O.2   173  LYS173     -0.2715
    118  CB         2.8980   -0.5270  -28.0380 C.3   173  LYS173      0.0311
    119  CG         4.0270   -0.4360  -26.9960 C.3   173  LYS173      0.0038
    120  CD         3.9020    0.7590  -26.0560 C.3   173  LYS173      0.0206
    121  CE         5.0600    0.7470  -25.0500 C.3   173  LYS173      0.1093
    122  NZ         4.9850    1.8400  -24.0390 N.3   173  LYS173     -0.1314
    123  N          1.8100   -2.0350  -31.0280 N.am  174  TRP174     -0.1974
    124  CA         0.6410   -2.4030  -31.8300 C.3   174  TRP174      0.1640
    125  C          0.9450   -3.7040  -32.5710 C.2   174  TRP174      0.2290
    126  O          0.0940   -4.2460  -33.2780 O.2   174  TRP174     -0.2864
    127  CB         0.3440   -1.3270  -32.8730 C.3   174  TRP174      0.0576
    128  CG        -0.3350   -0.0880  -32.3450 C.ar  174  TRP174      0.0006
    129  CD1       -1.6660    0.1830  -32.3810 C.ar  174  TRP174      0.0946
    130  CD2        0.2910    1.0400  -31.7180 C.ar  174  TRP174      0.0152
    131  NE1       -1.9170    1.4140  -31.8180 N.ar  174  TRP174     -0.2442
    132  CE2       -0.7330    1.9620  -31.4020 C.ar  174  TRP174      0.0810
    133  CE3        1.6150    1.3630  -31.3920 C.ar  174  TRP174      0.0012
    134  CZ2       -0.4760    3.1870  -30.7750 C.ar  174  TRP174      0.0191
    135  CZ3        1.8730    2.5860  -30.7650 C.ar  174  TRP174      0.0001
    136  CH2        0.8300    3.4810  -30.4650 C.ar  174  TRP174      0.0015
    137  N          6.4640   -9.7140  -34.2810 N.3   180  LEU180     -0.1231
    138  CA         7.7140   -9.2370  -33.7110 C.3   180  LEU180      0.1693
    139  C          8.7580  -10.3420  -33.8790 C.2   180  LEU180      0.2591
    140  O          9.9190  -10.0870  -34.1930 O.2   180  LEU180     -0.2718
    141  CB         7.5410   -8.9170  -32.2200 C.3   180  LEU180      0.0284
    142  CG         6.7640   -7.6420  -31.8680 C.3   180  LEU180      0.0019
    143  CD1        6.5070   -7.5720  -30.3730 C.3   180  LEU180      0.0001
    144  CD2        7.5640   -6.4290  -32.3380 C.3   180  LEU180      0.0001
    145  N          8.3300  -11.5810  -33.6810 N.am  181  ALA181     -0.1980
    146  CA         9.2420  -12.7150  -33.7910 C.3   181  ALA181      0.1597
    147  C          9.7170  -13.0200  -35.2100 C.2   181  ALA181      0.2287
    148  O         10.8980  -13.2690  -35.4260 O.2   181  ALA181     -0.2864
    149  CB         8.5810  -13.9670  -33.1900 C.3   181  ALA181      0.0319
    150  N          9.5520    0.0180  -24.6230 N.3   214  LEU214     -0.1231
    151  CA         9.2610   -0.7600  -25.8290 C.3   214  LEU214      0.1693
    152  C          9.9970   -2.0970  -25.8440 C.2   214  LEU214      0.2592
    153  O          9.4550   -3.1140  -26.2780 O.2   214  LEU214     -0.2718
    154  CB         9.6570    0.0220  -27.0850 C.3   214  LEU214      0.0284
    155  CG         8.9910    1.3650  -27.3880 C.3   214  LEU214      0.0019
    156  CD1        9.5080    1.8890  -28.7240 C.3   214  LEU214      0.0001
    157  CD2        7.4890    1.2010  -27.4480 C.3   214  LEU214      0.0001
    158  N         11.2350   -2.0820  -25.3690 N.am  215  SER215     -0.1952
    159  CA        12.0680   -3.2760  -25.3430 C.3   215  SER215      0.1924
    160  C         11.5940   -4.3360  -24.3580 C.2   215  SER215      0.2314
    161  O         12.0500   -5.4760  -24.4140 O.2   215  SER215     -0.2863
    162  CB        13.5030   -2.8920  -24.9930 C.3   215  SER215      0.2116
    163  OG        13.5580   -2.3780  -23.6710 O.3   215  SER215     -0.2180
    164  N          7.6800   -7.5420  -25.5610 N.3   218  TYR218     -0.1241
    165  CA         7.6190   -8.9430  -25.9680 C.3   218  TYR218      0.1605
    166  C          7.6660   -9.9240  -24.7970 C.2   218  TYR218      0.2264
    167  O          6.7940  -10.7830  -24.6740 O.2   218  TYR218     -0.2867
    168  CB         8.7400   -9.2800  -26.9570 C.3   218  TYR218      0.0534
    169  CG         8.5790  -10.6630  -27.5500 C.ar  218  TYR218     -0.0201
    170  CD1        7.7270  -10.8860  -28.6310 C.ar  218  TYR218     -0.0009
    171  CD2        9.2290  -11.7610  -26.9880 C.ar  218  TYR218     -0.0009
    172  CE1        7.5230  -12.1670  -29.1370 C.ar  218  TYR218      0.0417
    173  CE2        9.0300  -13.0470  -27.4840 C.ar  218  TYR218      0.0417
    174  CZ         8.1780  -13.2430  -28.5550 C.ar  218  TYR218      0.1957
    175  OH         7.9700  -14.5180  -29.0390 O.3   218  TYR218     -0.2866
@<TRIPOS>BOND
     1     4     3    2
     2     3     2    1
     3    48    49    1
     4    22    23    1
     5    22    19    1
     6    36    34   ar
     7    49    50    1
     8    49    52    1
     9    27    26    1
    10     2     1    1
    11     2     5    1
    12    24    23    1
    13    24    25    1
    14    18    19    1
    15    50    51    2
    16     5     6    1
    17    26    25    2
    18    26    28    1
    19    19    20    1
    20    34    33    1
    21    34    35   ar
    22    52    54    1
    23    52    53    1
    24    33    30    1
    25    20    29   am
    26    20    21    2
    27    29    30    1
    28     8     7    2
    29     6     7    1
    30     7     9   am
    31    30    31    1
    32    31    32    2
    33    55    56    1
    34    40    39    2
    35    87    86    1
    36    85    86    1
    37    85    84    1
    38    78    75    1
    39    58    57    2
    40    82    81    2
    41    39    38    1
    42    83    84    1
    43    83    80    1
    44    56    59    1
    45    56    57    1
    46    73    72    2
    47    62    64   ar
    48    62    60   ar
    49    79    80    1
    50    79    76   am
    51    75    76    1
    52    75    74    1
    53    64    63   ar
    54    59    60    1
    55    60    61   ar
    56    57    65   am
    57    97    98   ar
    58    97    95   ar
    59    63    61   ar
    60    81    80    1
    61    81    88   am
    62    76    77    2
    63    98    96   ar
    64    95    93   ar
    65    72    74   am
    66    72    71    1
    67    42    43    1
    68    42    41    1
    69    38    41    1
    70    38    37    1
    71   105   104    1
    72   105    99    1
    73    43    44    1
    74    44    45    2
    75   104   103    1
    76    65    66    1
    77    88    89    1
    78    89    92    1
    79    89    90    1
    80    96    94   ar
    81    93    94   ar
    82    93    92    1
    83   148   147    2
    84    70    71    1
    85    70    67   am
    86    66    67    1
    87    66    69    1
    88   147   146    1
    89    67    68    2
    90    47    45    1
    91    45    46    1
    92   103   100    1
    93    99    90   am
    94    99   100    1
    95    90    91    2
    96   137   138    1
    97   140   139    2
    98   100   101    1
    99   139   138    1
   100   139   145   am
   101   146   145    1
   102   146   149    1
   103   138   141    1
   104   126   125    2
   105    10    11    1
   106   101   102    2
   107   101   106   am
   108   127   128    1
   109   127   124    1
   110   125   124    1
   111   129   128   ar
   112   129   131   ar
   113   128   130   ar
   114   144   142    1
   115    14    11    1
   116    14    15    1
   117   106   107    1
   118   141   142    1
   119    11    12    1
   120   142   143    1
   121   124   123    1
   122   131   132   ar
   123   130   132   ar
   124   130   133   ar
   125    17    15    1
   126    12    13    2
   127   132   134   ar
   128   133   135   ar
   129   107   108    1
   130   107   110    1
   131    15    16    1
   132   123   116   am
   133   111   110    1
   134   111   113    1
   135   134   136   ar
   136   135   136   ar
   137   108   109    2
   138   108   114   am
   139   110   112    1
   140   114   115    1
   141   116   117    2
   142   116   115    1
   143   172   170   ar
   144   172   174   ar
   145   175   174    1
   146   115   118    1
   147   156   155    1
   148   170   169   ar
   149   174   173   ar
   150   118   119    1
   151   169   171   ar
   152   169   168    1
   153   173   171   ar
   154   157   155    1
   155   155   154    1
   156   154   151    1
   157   119   120    1
   158   168   165    1
   159   153   152    2
   160   120   121    1
   161   165   164    1
   162   165   166    1
   163   152   151    1
   164   152   158   am
   165   151   150    1
   166   158   159    1
   167   159   162    1
   168   159   160    1
   169   121   122    1
   170   162   163    1
   171   166   167    2
   172   161   160    2
