@<TRIPOS>MOLECULE
tmp/2g1uA00.pdb
 165 157 0 0 0
SMALL
GASTEIGER

@<TRIPOS>ATOM
      1  N         10.1220   29.5260   10.7970 N.3    11  GLY11      -0.1225
      2  CA        10.1000   28.8660   12.1160 C.3    11  GLY11       0.1811
      3  C          8.7530   29.0680   12.7710 C.2    11  GLY11       0.2280
      4  O          8.4060   30.1630   13.1430 O.2    11  GLY11      -0.2866
      5  N          7.7060   27.7040   15.6450 N.3    13  GLY13      -0.1210
      6  CA         7.8580   27.1280   16.9660 C.3    13  GLY13       0.1956
      7  C          7.2140   28.0410   17.9840 C.2    13  GLY13       0.2612
      8  O          6.2690   28.7720   17.6750 O.2    13  GLY13      -0.2717
      9  N          7.7180   27.9850   19.1970 N.am   14  ARG14      -0.1965
     10  CA         7.1680   28.7950   20.2670 C.3    14  ARG14       0.1729
     11  C          7.1730   30.3030   19.9060 C.2    14  ARG14       0.2616
     12  O          6.1130   30.9430   19.9820 O.2    14  ARG14      -0.2715
     13  CB         7.8890   28.4910   21.5670 C.3    14  ARG14       0.0348
     14  CG         7.6390   27.0530   22.0650 C.3    14  ARG14       0.0492
     15  CD         8.7090   26.5900   23.0520 C.3    14  ARG14       0.2205
     16  NE         9.9830   26.3760   22.3570 N.pl3  14  ARG14      -0.0865
     17  CZ        11.1240   26.0380   22.9280 C.cat  14  ARG14       0.5346
     18  NH1       11.1900   25.8660   24.2510 N.pl3  14  ARG14       0.1354
     19  NH2       12.2100   25.8720   22.1730 N.pl3  14  ARG14       0.1354
     20  N          8.3160   30.8470   19.4440 N.am   15  LEU15      -0.1963
     21  CA         8.4260   32.2650   19.1290 C.3    15  LEU15       0.1728
     22  C          7.6690   32.5730   17.8410 C.2    15  LEU15       0.2616
     23  O          6.8650   33.5190   17.7590 O.2    15  LEU15      -0.2715
     24  CB         9.9040   32.6680   18.9690 C.3    15  LEU15       0.0311
     25  CG        10.1150   34.1310   18.4920 C.3    15  LEU15       0.0022
     26  CD1        9.4360   35.1300   19.3910 C.3    15  LEU15       0.0001
     27  CD2       11.6450   34.4170   18.3330 C.3    15  LEU15       0.0001
     28  N          7.9680   31.8170   16.7980 N.am   16  GLY16      -0.1955
     29  CA         7.3780   32.1290   15.5120 C.3    16  GLY16       0.1869
     30  C          5.8830   32.0700   15.4610 C.2    16  GLY16       0.2309
     31  O          5.2340   32.8970   14.7960 O.2    16  GLY16      -0.2863
     32  N          6.7240   29.5080    7.4790 N.3    33  VAL33      -0.1231
     33  CA         7.5300   28.4630    6.8770 C.3    33  VAL33       0.1692
     34  C          8.1150   27.5770    7.9630 C.2    33  VAL33       0.2592
     35  O          8.6710   28.0610    8.9260 O.2    33  VAL33      -0.2718
     36  CB         8.6630   29.0560    6.0310 C.3    33  VAL33       0.0266
     37  CG1        9.5130   27.9220    5.3370 C.3    33  VAL33       0.0020
     38  CG2        8.1620   30.0670    4.9920 C.3    33  VAL33       0.0020
     39  N          8.0080   26.2450    7.8280 N.am   34  ASP34      -0.1960
     40  CA         8.6750   25.3210    8.7710 C.3    34  ASP34       0.1840
     41  C          9.0530   24.0280    8.0350 C.2    34  ASP34       0.2622
     42  O          8.4080   23.6710    7.0660 O.2    34  ASP34      -0.2715
     43  CB         7.8080   25.0500   10.0080 C.3    34  ASP34       0.1450
     44  CG         8.6430   24.6400   11.2270 C.2    34  ASP34       0.3671
     45  OD1        9.2330   23.5400   11.2340 O.co2  34  ASP34      -0.2456
     46  OD2        8.7330   25.4390   12.1790 O.co2  34  ASP34      -0.2456
     47  N         10.1590   23.4110    8.4600 N.am   35  LYS35      -0.1963
     48  CA        10.6080   22.1450    7.8740 C.3    35  LYS35       0.1728
     49  C          9.7140   20.9890    8.3260 C.2    35  LYS35       0.2616
     50  O          9.6470   19.9460    7.6560 O.2    35  LYS35      -0.2715
     51  CB        12.0760   21.8830    8.1780 C.3    35  LYS35       0.0311
     52  CG        12.4030   21.7030    9.6450 C.3    35  LYS35       0.0038
     53  CD        13.8640   21.2150    9.7400 C.3    35  LYS35       0.0206
     54  CE        14.3940   21.1710   11.1490 C.3    35  LYS35       0.1093
     55  NZ        15.7960   20.6420   11.1610 N.3    35  LYS35      -0.1314
     56  N          9.0510   21.1960    9.4660 N.am   36  ASN36      -0.1972
     57  CA         8.1920   20.2360   10.1210 C.3    36  ASN36       0.1688
     58  C          6.7350   20.6500   10.0280 C.2    36  ASN36       0.2292
     59  O          6.3410   21.6400   10.6790 O.2    36  ASN36      -0.2864
     60  CB         8.6010   20.1830   11.6010 C.3    36  ASN36       0.1181
     61  CG         7.7160   19.2740   12.4140 C.2    36  ASN36       0.2629
     62  OD1        7.0290   18.4220   11.8540 O.2    36  ASN36      -0.2716
     63  ND2        7.7080   19.4710   13.7600 N.am   36  ASN36      -0.0877
     64  N          4.5940   21.4710   13.1640 N.3    39  ALA39      -0.1245
     65  CA         4.7820   22.7560   13.8560 C.3    39  ALA39       0.1562
     66  C          3.5640   23.6710   13.6930 C.2    39  ALA39       0.2260
     67  O          3.2280   24.4570   14.5830 O.2    39  ALA39      -0.2867
     68  CB         6.0160   23.4370   13.3690 C.3    39  ALA39       0.0290
     69  N          0.5860   24.8190   16.1560 N.3    42  ARG42      -0.1245
     70  CA         0.6660   26.0040   17.0660 C.3    42  ARG42       0.1563
     71  C         -0.1070   27.2480   16.5690 C.2    42  ARG42       0.2260
     72  O         -0.3630   28.1630   17.3480 O.2    42  ARG42      -0.2867
     73  CB         2.1230   26.3740   17.3230 C.3    42  ARG42       0.0307
     74  CG         2.9500   25.2700   17.9710 C.3    42  ARG42       0.0489
     75  CD         4.3810   25.7680   18.2190 C.3    42  ARG42       0.2205
     76  NE         5.2350   24.7790   18.8830 N.pl3  42  ARG42      -0.0865
     77  CZ         5.2890   24.5710   20.1990 C.cat  42  ARG42       0.5346
     78  NH1        4.5340   25.2710   21.0430 N.pl3  42  ARG42       0.1354
     79  NH2        6.1100   23.6480   20.6880 N.pl3  42  ARG42       0.1354
     80  N          9.1140   23.4540    4.1770 N.3    54  GLY54      -0.1210
     81  CA        10.4080   23.3530    3.5380 C.3    54  GLY54       0.1956
     82  C         11.5520   23.7140    4.4660 C.2    54  GLY54       0.2612
     83  O         11.3560   24.3270    5.5230 O.2    54  GLY54      -0.2717
     84  N         12.7340   23.3050    4.0670 N.am   55  ASP55      -0.1959
     85  CA        13.9510   23.5760    4.7920 C.3    55  ASP55       0.1840
     86  C         14.4300   24.9480    4.3530 C.2    55  ASP55       0.2622
     87  O         14.8170   25.1500    3.1860 O.2    55  ASP55      -0.2715
     88  CB        14.9620   22.5100    4.4050 C.3    55  ASP55       0.1450
     89  CG        16.2970   22.6780    5.0570 C.2    55  ASP55       0.3671
     90  OD1       16.5400   23.6530    5.7790 O.co2  55  ASP55      -0.2456
     91  OD2       17.1570   21.7860    4.8250 O.co2  55  ASP55      -0.2456
     92  N         14.4070   25.8860    5.3020 N.am   56  ALA56      -0.1963
     93  CA        14.7420   27.2700    4.9900 C.3    56  ALA56       0.1728
     94  C         16.2490   27.4650    4.7520 C.2    56  ALA56       0.2616
     95  O         16.6790   28.5750    4.3490 O.2    56  ALA56      -0.2715
     96  CB        14.2720   28.1500    6.1060 C.3    56  ALA56       0.0334
     97  N         17.0790   26.4270    4.9700 N.am   57  ALA57      -0.1977
     98  CA        18.4670   26.5070    4.5690 C.3    57  ALA57       0.1597
     99  C         18.6810   26.1950    3.0670 C.2    57  ALA57       0.2287
    100  O         19.8020   26.2660    2.5650 O.2    57  ALA57      -0.2864
    101  CB        19.3350   25.5940    5.4560 C.3    57  ALA57       0.0319
    102  N         13.1990   33.1540   12.4930 N.3    76  PHE76      -0.1227
    103  CA        12.9430   32.6680   13.8530 C.3    76  PHE76       0.1736
    104  C         13.0380   31.1460   13.9780 C.2    76  PHE76       0.2596
    105  O         12.3760   30.5360   14.8200 O.2    76  PHE76      -0.2718
    106  CB        11.5640   33.1550   14.3360 C.3    76  PHE76       0.0547
    107  CG        11.4520   34.6660   14.6730 C.ar   76  PHE76      -0.0202
    108  CD1       12.5280   35.5420   14.7800 C.ar   76  PHE76      -0.0042
    109  CD2       10.1700   35.1960   14.8570 C.ar   76  PHE76      -0.0042
    110  CE1       12.3440   36.8760   15.1770 C.ar   76  PHE76      -0.0003
    111  CE2        9.9930   36.5200   15.2080 C.ar   76  PHE76      -0.0003
    112  CZ        11.0870   37.3560   15.3630 C.ar   76  PHE76      -0.0000
    113  N         13.9280   30.5000   13.2290 N.am   77  THR77      -0.1939
    114  CA        14.2390   29.1020   13.4880 C.3    77  THR77       0.2028
    115  C         15.1380   29.0080   14.7440 C.2    77  THR77       0.2642
    116  O         15.5270   30.0350   15.3110 O.2    77  THR77      -0.2714
    117  CB        14.9400   28.4180   12.3380 C.3    77  THR77       0.1808
    118  OG1       16.3540   28.7080   12.3400 O.3    77  THR77      -0.2208
    119  CG2       14.3150   28.7080   11.0000 C.3    77  THR77       0.0379
    120  N         15.3940   27.7910   15.1790 N.am   78  ASN78      -0.1957
    121  CA        16.2450   27.5620   16.3630 C.3    78  ASN78       0.1819
    122  C         17.7090   27.3670   15.9740 C.2    78  ASN78       0.2621
    123  O         18.5100   26.8610   16.7890 O.2    78  ASN78      -0.2715
    124  CB        15.7380   26.3810   17.1650 C.3    78  ASN78       0.1195
    125  CG        15.6430   25.1300   16.3730 C.2    78  ASN78       0.2630
    126  OD1       15.9750   25.0810   15.2200 O.2    78  ASN78      -0.2716
    127  ND2       15.1660   24.0680   17.0200 N.am   78  ASN78      -0.0877
    128  N         18.0930   27.7870   14.7820 N.am   79  ASP79      -0.1971
    129  CA        19.4870   27.6340   14.3280 C.3    79  ASP79       0.1709
    130  C         20.0360   28.9540   13.8150 C.2    79  ASP79       0.2293
    131  O         19.5060   29.5150   12.8880 O.2    79  ASP79      -0.2864
    132  CB        19.5790   26.5400   13.2460 C.3    79  ASP79       0.1436
    133  CG        21.0060   26.2690   12.8190 C.2    79  ASP79       0.3671
    134  OD1       21.6330   25.3900   13.4660 O.co2  79  ASP79      -0.2456
    135  OD2       21.5260   26.9250   11.8860 O.co2  79  ASP79      -0.2456
    136  N         21.1300   29.0030   10.0790 N.3    82  THR82      -0.1218
    137  CA        19.9710   29.0580    9.2030 C.3    82  THR82       0.1862
    138  C         19.3610   30.4610    9.1900 C.2    82  THR82       0.2287
    139  O         18.9910   30.9990    8.1350 O.2    82  THR82      -0.2866
    140  CB        18.9640   28.0080    9.6110 C.3    82  THR82       0.1770
    141  OG1       19.6290   26.7050    9.5760 O.3    82  THR82      -0.2211
    142  CG2       17.7330   28.0370    8.6920 C.3    82  THR82       0.0375
    143  N         16.2730   35.9510   15.1090 N.3   102  ARG102     -0.1245
    144  CA        16.6810   35.4400   16.4090 C.3   102  ARG102      0.1563
    145  C         18.1030   34.8980   16.3660 C.2   102  ARG102      0.2260
    146  O         18.4730   34.1510   15.4780 O.2   102  ARG102     -0.2867
    147  CB        15.7560   34.3580   16.9620 C.3   102  ARG102      0.0307
    148  CG        16.3390   33.7710   18.2690 C.3   102  ARG102      0.0489
    149  CD        15.3850   32.9340   18.9660 C.3   102  ARG102      0.2205
    150  NE        14.9700   31.7960   18.1500 N.pl3 102  ARG102     -0.0865
    151  CZ        13.9230   31.0300   18.4480 C.cat 102  ARG102      0.5346
    152  NH1       13.2180   31.2710   19.5440 N.pl3 102  ARG102      0.1354
    153  NH2       13.5850   30.0130   17.6450 N.pl3 102  ARG102      0.1354
    154  N         20.8600   33.1360   19.0290 N.3   104  TYR104     -0.1241
    155  CA        21.0940   32.6070   20.3750 C.3   104  TYR104      0.1605
    156  C         22.4250   32.9950   20.9610 C.2   104  TYR104      0.2264
    157  O         22.4960   33.3380   22.1370 O.2   104  TYR104     -0.2867
    158  CB        20.9960   31.0990   20.4070 C.3   104  TYR104      0.0534
    159  CG        19.6390   30.6210   20.0750 C.ar  104  TYR104     -0.0201
    160  CD1       18.6760   30.5190   21.0470 C.ar  104  TYR104     -0.0009
    161  CD2       19.3150   30.2900   18.7800 C.ar  104  TYR104     -0.0009
    162  CE1       17.4120   30.0710   20.7370 C.ar  104  TYR104      0.0417
    163  CE2       18.0810   29.8460   18.4650 C.ar  104  TYR104      0.0417
    164  CZ        17.1390   29.7350   19.4440 C.ar  104  TYR104      0.1957
    165  OH        15.8790   29.2870   19.1130 O.3   104  TYR104     -0.2866
@<TRIPOS>BOND
     1   100    99    2
     2    99    98    1
     3    87    86    2
     4    81    80    1
     5    81    82    1
     6    84    82   am
     7    84    85    1
     8    95    94    2
     9    86    85    1
    10    86    92   am
    11    88    85    1
    12    88    89    1
    13    82    83    2
    14    98    97    1
    15    98   101    1
    16    94    97   am
    17    94    93    1
    18    91    89   ar
    19    93    92    1
    20    93    96    1
    21    38    36    1
    22    89    90   ar
    23    37    36    1
    24    36    33    1
    25    33    32    1
    26    33    34    1
    27    42    41    2
    28    50    49    2
    29    39    34   am
    30    39    40    1
    31    48    51    1
    32    48    49    1
    33    48    47    1
    34    34    35    2
    35    41    47   am
    36    41    40    1
    37   139   138    2
    38    51    52    1
    39    49    56   am
    40   142   140    1
    41    40    43    1
    42   138   137    1
    43   137   140    1
    44   137   136    1
    45    56    57    1
    46   141   140    1
    47    52    53    1
    48    53    54    1
    49    43    44    1
    50    58    57    1
    51    58    59    2
    52    57    60    1
    53     1     2    1
    54   119   117    1
    55    54    55    1
    56    44    45   ar
    57    44    46   ar
    58    60    61    1
    59    62    61    2
    60   135   133   ar
    61     2     3    1
    62   117   118    1
    63   117   114    1
    64    61    63   am
    65   102   103    1
    66     3     4    2
    67   133   132    1
    68   133   134   ar
    69   131   130    2
    70    64    65    1
    71   113   114    1
    72   113   104   am
    73   132   129    1
    74    68    65    1
    75   114   115    1
    76    66    65    1
    77    66    67    2
    78   130   129    1
    79   103   104    1
    80   103   106    1
    81   104   105    2
    82   129   128    1
    83   106   107    1
    84   107   108   ar
    85   107   109   ar
    86   115   120   am
    87   115   116    2
    88   108   110   ar
    89   128   122   am
    90    31    30    2
    91   109   111   ar
    92   143   144    1
    93   110   112   ar
    94   120   121    1
    95   111   112   ar
    96   126   125    2
    97    30    29    1
    98   146   145    2
    99    29    28    1
   100     5     6    1
   101   122   121    1
   102   122   123    2
   103    69    70    1
   104   121   124    1
   105   145   144    1
   106   125   127   am
   107   125   124    1
   108   144   147    1
   109    71    70    1
   110    71    72    2
   111    28    22   am
   112   147   148    1
   113     6     7    1
   114    70    73    1
   115    73    74    1
   116   153   151    1
   117     8     7    2
   118    23    22    2
   119    22    21    1
   120    74    75    1
   121     7     9   am
   122   150   151    2
   123   150   149    1
   124    75    76    1
   125   148   149    1
   126    27    25    1
   127   151   152    1
   128   163   161   ar
   129   163   164   ar
   130    25    24    1
   131    25    26    1
   132   161   159   ar
   133    76    77    2
   134    24    21    1
   135   154   155    1
   136   165   164    1
   137    21    20    1
   138     9    10    1
   139    20    11   am
   140   164   162   ar
   141    11    12    2
   142    11    10    1
   143   159   158    1
   144   159   160   ar
   145    77    79    1
   146    77    78    1
   147    10    13    1
   148   155   158    1
   149   155   156    1
   150   162   160   ar
   151   156   157    2
   152    13    14    1
   153    14    15    1
   154    19    17    1
   155    16    17    2
   156    16    15    1
   157    17    18    1
