@<TRIPOS>MOLECULE
tmp/2g1yA01.pdb
 180 173 0 0 0
SMALL
GASTEIGER

@<TRIPOS>ATOM
      1  N         16.7150  101.2780  134.0640 N.3    11  THR11      -0.1203
      2  CA        18.0630  101.4360  133.5420 C.3    11  THR11       0.1994
      3  C         18.2740  102.7250  132.7540 C.2    11  THR11       0.2618
      4  O         19.4100  103.1190  132.4980 O.2    11  THR11      -0.2717
      5  CB        18.4440  100.2600  132.6460 C.3    11  THR11       0.1784
      6  OG1       17.5340  100.1850  131.5430 O.3    11  THR11      -0.2211
      7  CG2       18.3940   98.9640  133.4270 C.3    11  THR11       0.0376
      8  N         17.1840  103.3840  132.3710 N.am   12  GLN12      -0.1965
      9  CA        17.2790  104.6220  131.6060 C.3    12  GLN12       0.1733
     10  C         16.3320  105.6950  132.1320 C.2    12  GLN12       0.2616
     11  O         15.1170  105.4900  132.1930 O.2    12  GLN12      -0.2715
     12  CB        16.9680  104.3490  130.1310 C.3    12  GLN12       0.0408
     13  CG        17.9870  103.4530  129.4430 C.3    12  GLN12       0.0908
     14  CD        17.5950  103.1050  128.0210 C.2    12  GLN12       0.2608
     15  OE1       17.2650  103.9840  127.2270 O.2    12  GLN12      -0.2717
     16  NE2       17.6350  101.8180  127.6890 N.am   12  GLN12      -0.0878
     17  N         16.8880  106.8350  132.5250 N.am   13  TYR13      -0.1974
     18  CA        16.0720  107.9360  133.0130 C.3    13  TYR13       0.1639
     19  C         16.3480  109.1180  132.1090 C.2    13  TYR13       0.2290
     20  O         17.5000  109.4880  131.9090 O.2    13  TYR13      -0.2864
     21  CB        16.4140  108.2780  134.4700 C.3    13  TYR13       0.0560
     22  CG        16.0010  107.2110  135.4670 C.ar   13  TYR13      -0.0198
     23  CD1       16.8120  106.1200  135.7200 C.ar   13  TYR13      -0.0009
     24  CD2       14.7910  107.2960  136.1470 C.ar   13  TYR13      -0.0009
     25  CE1       16.4350  105.1450  136.6260 C.ar   13  TYR13       0.0417
     26  CE2       14.4020  106.3280  137.0560 C.ar   13  TYR13       0.0417
     27  CZ        15.2310  105.2540  137.2930 C.ar   13  TYR13       0.1957
     28  OH        14.8710  104.2830  138.2060 O.3    13  TYR13      -0.2866
     29  N         19.2710  112.1810  128.6960 N.3    29  VAL29      -0.1245
     30  CA        19.6230  111.7650  130.0420 C.3    29  VAL29       0.1561
     31  C         20.4100  112.9170  130.6500 C.2    29  VAL29       0.2260
     32  O         21.2780  113.4860  129.9920 O.2    29  VAL29      -0.2867
     33  CB        20.5280  110.5230  130.0460 C.3    29  VAL29       0.0252
     34  CG1       20.9330  110.1870  131.4660 C.3    29  VAL29       0.0019
     35  CG2       19.8170  109.3580  129.4120 C.3    29  VAL29       0.0019
     36  N         23.1150  113.7070  132.7550 N.3    31  ASP31      -0.1239
     37  CA        24.2870  112.9630  133.1940 C.3    31  ASP31       0.1674
     38  C         25.3560  113.7100  133.9830 C.2    31  ASP31       0.2266
     39  O         26.0800  114.5370  133.4260 O.2    31  ASP31      -0.2867
     40  CB        24.8980  112.3540  131.9270 C.3    31  ASP31       0.1410
     41  CG        26.2000  111.6460  132.1680 C.2    31  ASP31       0.3668
     42  OD1       26.9630  111.5230  131.1870 O.co2  31  ASP31      -0.2456
     43  OD2       26.4560  111.2010  133.3030 O.co2  31  ASP31      -0.2456
     44  N         27.8520  112.3930  134.9670 N.3    33  GLY33      -0.1225
     45  CA        29.0850  111.7040  134.6320 C.3    33  GLY33       0.1811
     46  C         29.7720  112.2030  133.3680 C.2    33  GLY33       0.2280
     47  O         30.7410  111.6020  132.9090 O.2    33  GLY33      -0.2866
     48  N         31.9970  107.3500  126.4310 N.3    76  TYR76      -0.1227
     49  CA        31.3200  106.9280  127.6470 C.3    76  TYR76       0.1736
     50  C         31.7890  105.5040  127.9390 C.2    76  TYR76       0.2596
     51  O         32.3460  104.8310  127.0630 O.2    76  TYR76      -0.2718
     52  CB        29.7970  106.9690  127.4800 C.3    76  TYR76       0.0548
     53  CG        29.2560  108.3250  127.0950 C.ar   76  TYR76      -0.0200
     54  CD1       28.9610  108.6240  125.7760 C.ar   76  TYR76      -0.0009
     55  CD2       29.0620  109.3200  128.0490 C.ar   76  TYR76      -0.0009
     56  CE1       28.4870  109.8700  125.4090 C.ar   76  TYR76       0.0417
     57  CE2       28.5870  110.5820  127.6890 C.ar   76  TYR76       0.0417
     58  CZ        28.3030  110.8440  126.3630 C.ar   76  TYR76       0.1957
     59  OH        27.8240  112.0740  125.9850 O.3    76  TYR76      -0.2866
     60  N         31.5670  105.0450  129.1630 N.am   77  SER77      -0.1938
     61  CA        31.9910  103.7110  129.5620 C.3    77  SER77       0.2055
     62  C         31.3750  102.6050  128.7200 C.2    77  SER77       0.2644
     63  O         31.9150  101.5020  128.6320 O.2    77  SER77      -0.2714
     64  CB        31.6460  103.4730  131.0320 C.3    77  SER77       0.2130
     65  OG        30.2490  103.5350  131.2400 O.3    77  SER77      -0.2179
     66  N         30.2520  102.8940  128.0820 N.am   78  THR78      -0.1936
     67  CA        29.5970  101.8690  127.2990 C.3    78  THR78       0.2028
     68  C         29.3340  102.2170  125.8490 C.2    78  THR78       0.2642
     69  O         28.5980  101.5110  125.1670 O.2    78  THR78      -0.2714
     70  CB        28.2840  101.4840  127.9610 C.3    78  THR78       0.1808
     71  OG1       27.4990  102.6620  128.1760 O.3    78  THR78      -0.2208
     72  CG2       28.5590  100.8110  129.2840 C.3    78  THR78       0.0379
     73  N         29.9350  103.2960  125.3710 N.am   79  GLY79      -0.1954
     74  CA        29.7200  103.6720  123.9880 C.3    79  GLY79       0.1869
     75  C         30.3140  105.0130  123.6270 C.2    79  GLY79       0.2309
     76  O         30.5560  105.8600  124.4930 O.2    79  GLY79      -0.2863
     77  N         25.6940  100.6460  121.6230 N.3   111  PRO111     -0.2102
     78  CA        24.4140  100.4390  122.3020 C.3   111  PRO111      0.1504
     79  C         23.2160  101.3240  121.9370 C.2   111  PRO111      0.2575
     80  O         22.0960  101.0330  122.3540 O.2   111  PRO111     -0.2718
     81  CB        24.7900  100.6900  123.7440 C.3   111  PRO111      0.0282
     82  CG        25.6130  101.9660  123.5750 C.3   111  PRO111      0.0208
     83  CD        26.5020  101.6320  122.3650 C.3   111  PRO111      0.0893
     84  N         23.4230  102.3850  121.1700 N.am  112  PHE112     -0.1977
     85  CA        22.3210  103.3030  120.9350 C.3   112  PHE112      0.1639
     86  C         21.0140  102.8310  120.3470 C.2   112  PHE112      0.2290
     87  O         20.0040  103.5120  120.4890 O.2   112  PHE112     -0.2864
     88  CB        22.8480  104.5460  120.2420 C.3   112  PHE112      0.0560
     89  CG        23.8970  105.2410  121.0510 C.ar  112  PHE112     -0.0200
     90  CD1       25.2420  105.0520  120.7810 C.ar  112  PHE112     -0.0042
     91  CD2       23.5430  105.9790  122.1630 C.ar  112  PHE112     -0.0042
     92  CE1       26.2130  105.5810  121.6120 C.ar  112  PHE112     -0.0003
     93  CE2       24.5140  106.5110  123.0010 C.ar  112  PHE112     -0.0003
     94  CZ        25.8480  106.3090  122.7250 C.ar  112  PHE112     -0.0000
     95  N         19.5810  100.5060  121.5470 N.3   114  LEU114     -0.1231
     96  CA        18.8930  100.0990  122.7670 C.3   114  LEU114      0.1693
     97  C         18.5660  101.2700  123.6840 C.2   114  LEU114      0.2591
     98  O         18.0650  101.0710  124.7830 O.2   114  LEU114     -0.2718
     99  CB        19.7350   99.0890  123.5420 C.3   114  LEU114      0.0284
    100  CG        20.0810   97.8010  122.7930 C.3   114  LEU114      0.0019
    101  CD1       20.9990   96.9610  123.6420 C.3   114  LEU114      0.0001
    102  CD2       18.8120   97.0440  122.4460 C.3   114  LEU114      0.0001
    103  N         18.8560  102.4880  123.2410 N.am  115  ALA115     -0.1980
    104  CA        18.5640  103.6720  124.0430 C.3   115  ALA115      0.1597
    105  C         17.1670  104.2020  123.7730 C.2   115  ALA115      0.2287
    106  O         16.7740  104.3950  122.6210 O.2   115  ALA115     -0.2864
    107  CB        19.5690  104.7560  123.7540 C.3   115  ALA115      0.0319
    108  N         16.3680  106.9960  124.9560 N.3   117  PHE117     -0.1241
    109  CA        16.6460  108.4160  124.8350 C.3   117  PHE117      0.1605
    110  C         17.3210  108.7620  123.5170 C.2   117  PHE117      0.2264
    111  O         17.8420  107.8960  122.8280 O.2   117  PHE117     -0.2867
    112  CB        17.5330  108.8880  125.9890 C.3   117  PHE117      0.0534
    113  CG        18.8280  108.1320  126.1160 C.ar  117  PHE117     -0.0203
    114  CD1       18.8940  106.9620  126.8570 C.ar  117  PHE117     -0.0042
    115  CD2       19.9880  108.6060  125.5140 C.ar  117  PHE117     -0.0042
    116  CE1       20.1020  106.2790  127.0030 C.ar  117  PHE117     -0.0003
    117  CE2       21.1910  107.9320  125.6540 C.ar  117  PHE117     -0.0003
    118  CZ        21.2500  106.7670  126.4010 C.ar  117  PHE117     -0.0000
    119  N         22.1680  113.3480  125.3010 N.3   120  VAL120     -0.1245
    120  CA        22.6640  113.5870  126.6440 C.3   120  VAL120      0.1561
    121  C         22.9430  115.0510  126.9750 C.2   120  VAL120      0.2260
    122  O         23.4680  115.8110  126.1590 O.2   120  VAL120     -0.2867
    123  CB        23.9750  112.7910  126.8810 C.3   120  VAL120      0.0252
    124  CG1       24.4120  112.9060  128.3400 C.3   120  VAL120      0.0019
    125  CG2       23.7860  111.3360  126.4450 C.3   120  VAL120      0.0019
    126  N         15.1930  109.5700  141.3220 N.3   155  TYR155     -0.1241
    127  CA        15.0070  108.4490  140.4000 C.3   155  TYR155      0.1605
    128  C         14.0640  107.5050  141.1140 C.2   155  TYR155      0.2264
    129  O         14.4340  106.9000  142.1220 O.2   155  TYR155     -0.2867
    130  CB        16.3220  107.7190  140.1200 C.3   155  TYR155      0.0534
    131  CG        17.1510  108.3470  139.0400 C.ar  155  TYR155     -0.0201
    132  CD1       18.3890  107.8260  138.6930 C.ar  155  TYR155     -0.0009
    133  CD2       16.6970  109.4620  138.3580 C.ar  155  TYR155     -0.0009
    134  CE1       19.1530  108.4040  137.6910 C.ar  155  TYR155      0.0417
    135  CE2       17.4530  110.0450  137.3560 C.ar  155  TYR155      0.0417
    136  CZ        18.6770  109.5120  137.0280 C.ar  155  TYR155      0.1957
    137  OH        19.4120  110.0900  136.0280 O.3   155  TYR155     -0.2866
    138  N         27.3060  109.1980  139.5290 N.3   219  ASP219     -0.1225
    139  CA        26.8920  109.3050  138.1400 C.3   219  ASP219      0.1805
    140  C         25.4010  109.1080  137.8640 C.2   219  ASP219      0.2598
    141  O         24.9060  107.9870  137.8750 O.2   219  ASP219     -0.2718
    142  CB        27.7130  108.2900  137.3400 C.3   219  ASP219      0.1424
    143  CG        27.7250  108.5790  135.8650 C.2   219  ASP219      0.3668
    144  OD1       28.3630  107.8060  135.1280 O.co2 219  ASP219     -0.2456
    145  OD2       27.1060  109.5750  135.4390 O.co2 219  ASP219     -0.2456
    146  N         24.6940  110.1970  137.5880 N.am  220  THR220     -0.1939
    147  CA        23.2620  110.1120  137.3020 C.3   220  THR220      0.2028
    148  C         23.0080  109.5270  135.9210 C.2   220  THR220      0.2643
    149  O         21.8780  109.1620  135.5950 O.2   220  THR220     -0.2714
    150  CB        22.5750  111.4910  137.3230 C.3   220  THR220      0.1808
    151  OG1       23.1680  112.3310  136.3250 O.3   220  THR220     -0.2208
    152  CG2       22.7000  112.1330  138.6830 C.3   220  THR220      0.0379
    153  N         24.0600  109.4420  135.1140 N.am  221  GLY221     -0.1939
    154  CA        23.9090  108.9320  133.7650 C.3   221  GLY221      0.2014
    155  C         24.2880  107.4770  133.6170 C.2   221  GLY221      0.2639
    156  O         24.3900  106.9710  132.4940 O.2   221  GLY221     -0.2714
    157  N         24.5040  106.8040  134.7440 N.am  222  ALA222     -0.1963
    158  CA        24.8640  105.3950  134.7320 C.3   222  ALA222      0.1728
    159  C         23.7160  104.5600  135.3080 C.2   222  ALA222      0.2616
    160  O         23.0930  104.9450  136.2960 O.2   222  ALA222     -0.2715
    161  CB        26.1250  105.1840  135.5340 C.3   222  ALA222      0.0334
    162  N         23.4460  103.4140  134.6930 N.am  223  SER223     -0.1950
    163  CA        22.3670  102.5510  135.1450 C.3   223  SER223      0.1924
    164  C         22.6260  101.8560  136.4560 C.2   223  SER223      0.2314
    165  O         21.6980  101.5740  137.1910 O.2   223  SER223     -0.2863
    166  CB        22.0730  101.4630  134.1210 C.3   223  SER223      0.2116
    167  OG        21.6440  102.0110  132.9010 O.3   223  SER223     -0.2180
    168  N         33.0180   97.6600  136.1240 N.3   296  MET296     -0.1245
    169  CA        33.3160   98.6820  135.1220 C.3   296  MET296      0.1570
    170  C         34.5620   99.4370  135.5550 C.2   296  MET296      0.2261
    171  O         34.5330  100.1830  136.5280 O.2   296  MET296     -0.2867
    172  CB        32.1330   99.6440  134.9890 C.3   296  MET296      0.0387
    173  CG        32.1690  100.5570  133.7700 C.3   296  MET296      0.0595
    174  SD        30.5880  100.5160  132.8320 S.3   296  MET296     -0.1393
    175  CE        29.5490  101.7700  133.7110 C.3   296  MET296      0.0692
    176  N         22.0800  104.8470  139.0260 N.3   310  ALA310     -0.1245
    177  CA        20.6590  104.7330  139.3190 C.3   310  ALA310      0.1562
    178  C         20.3070  103.7410  140.4230 C.2   310  ALA310      0.2260
    179  O         19.3350  103.9350  141.1500 O.2   310  ALA310     -0.2867
    180  CB        19.9050  104.3790  138.0460 C.3   310  ALA310      0.0290
@<TRIPOS>BOND
     1    88    85    1
     2    88    89    1
     3    86    87    2
     4    86    85    1
     5    90    89   ar
     6    90    92   ar
     7    85    84    1
     8    89    91   ar
     9    84    79   am
    10    95    96    1
    11    92    94   ar
    12    77    78    1
    13    77    83    1
    14    79    78    1
    15    79    80    2
    16    91    93   ar
    17    78    81    1
    18    83    82    1
    19   102   100    1
    20   106   105    2
    21    94    93   ar
    22    96    99    1
    23    96    97    1
    24   100    99    1
    25   100   101    1
    26   111   110    2
    27   103    97   am
    28   103   104    1
    29   110   109    1
    30    82    81    1
    31    75    74    1
    32    75    76    2
    33    97    98    2
    34   107   104    1
    35   105   104    1
    36    74    73    1
    37   109   108    1
    38   109   112    1
    39    69    68    2
    40   119   120    1
    41    73    68   am
    42    56    54   ar
    43    56    58   ar
    44   115   117   ar
    45   115   113   ar
    46   117   118   ar
    47    54    53   ar
    48    68    67    1
    49    59    58    1
    50   112   113    1
    51   113   114   ar
    52   122   121    2
    53    58    57   ar
    54   118   116   ar
    55    48    49    1
    56   125   123    1
    57   120   123    1
    58   120   121    1
    59   114   116   ar
    60   123   124    1
    61    51    50    2
    62    53    52    1
    63    53    55   ar
    64    15    14    2
    65    67    70    1
    66    67    66    1
    67    52    49    1
    68    49    50    1
    69    57    55   ar
    70    16    14   am
    71    50    60   am
    72    70    71    1
    73    70    72    1
    74    14    13    1
    75    66    62   am
    76    63    62    2
    77    29    30    1
    78    62    61    1
    79    60    61    1
    80    35    33    1
    81    13    12    1
    82    61    64    1
    83    32    31    2
    84    30    33    1
    85    30    31    1
    86    33    34    1
    87    12     9    1
    88    64    65    1
    89    42    41   ar
    90     6     5    1
    91     9    10    1
    92     9     8    1
    93    20    19    2
    94    40    41    1
    95    40    37    1
    96    19    18    1
    97    10    11    2
    98    10    17   am
    99    41    43   ar
   100     8     3   am
   101   156   155    2
   102     4     3    2
   103    17    18    1
   104     5     7    1
   105     5     2    1
   106     3     2    1
   107    36    37    1
   108   174   175    1
   109   174   173    1
   110   167   166    1
   111    47    46    2
   112    18    21    1
   113    37    38    1
   114    46    45    1
   115    39    38    2
   116     2     1    1
   117   155   154    1
   118   155   157   am
   119   154   153    1
   120   173   172    1
   121   166   163    1
   122    21    22    1
   123    45    44    1
   124   162   163    1
   125   162   159   am
   126   158   157    1
   127   158   159    1
   128   158   161    1
   129   172   169    1
   130   153   148   am
   131   169   170    1
   132   169   168    1
   133   144   143   ar
   134   163   164    1
   135   159   160    2
   136   145   143   ar
   137    22    23   ar
   138    22    24   ar
   139   170   171    2
   140   149   148    2
   141    23    25   ar
   142   143   142    1
   143   148   147    1
   144   137   136    1
   145    24    26   ar
   146   151   150    1
   147   164   165    2
   148    25    27   ar
   149   136   135   ar
   150   136   134   ar
   151    26    27   ar
   152    27    28    1
   153   147   150    1
   154   147   146    1
   155   150   152    1
   156   142   139    1
   157   135   133   ar
   158   146   140   am
   159   134   132   ar
   160   140   141    2
   161   140   139    1
   162   180   177    1
   163   139   138    1
   164   133   131   ar
   165   132   131   ar
   166   176   177    1
   167   131   130    1
   168   177   178    1
   169   130   127    1
   170   127   128    1
   171   127   126    1
   172   178   179    2
   173   128   129    2
