@<TRIPOS>MOLECULE
tmp/2g20A00.pdb
 217 205 0 0 0
SMALL
GASTEIGER

@<TRIPOS>ATOM
      1  N          6.9610   54.2050  101.5790 N.3    11  THR11      -0.1203
      2  CA         7.5230   52.8710  101.6860 C.3    11  THR11       0.1994
      3  C          8.3360   52.6250  102.9390 C.2    11  THR11       0.2617
      4  O          8.6390   51.4800  103.2500 O.2    11  THR11      -0.2717
      5  CB         8.4090   52.5250  100.4640 C.3    11  THR11       0.1784
      6  OG1        9.4310   53.5190  100.3130 O.3    11  THR11      -0.2211
      7  CG2        7.5720   52.4320   99.2020 C.3    11  THR11       0.0376
      8  N          8.7000   53.6900  103.6510 N.am   12  GLN12      -0.1979
      9  CA         9.4800   53.5570  104.8790 C.3    12  GLN12       0.1601
     10  C          8.9880   54.4690  106.0040 C.2    12  GLN12       0.2287
     11  O          9.1360   55.6910  105.9370 O.2    12  GLN12      -0.2864
     12  CB        10.9470   53.8670  104.6040 C.3    12  GLN12       0.0394
     13  CG        11.6470   52.8920  103.6680 C.3    12  GLN12       0.0908
     14  CD        13.0420   53.3500  103.3360 C.2    12  GLN12       0.2608
     15  OE1       13.8040   53.7510  104.2250 O.2    12  GLN12      -0.2717
     16  NE2       13.3930   53.2980  102.0590 N.am   12  GLN12      -0.0878
     17  N         12.5010   51.2080  112.1990 N.3    29  VAL29      -0.1245
     18  CA        11.1770   50.8400  111.7270 C.3    29  VAL29       0.1561
     19  C         10.5660   50.0430  112.8680 C.2    29  VAL29       0.2260
     20  O         11.2610   49.2550  113.5030 O.2    29  VAL29      -0.2867
     21  CB        11.2630   49.9100  110.4920 C.3    29  VAL29       0.0252
     22  CG1        9.9040   49.3350  110.1730 C.3    29  VAL29       0.0019
     23  CG2       11.8090   50.6780  109.2910 C.3    29  VAL29       0.0019
     24  N          8.4350   47.1690  113.6520 N.3    31  ASP31      -0.1239
     25  CA         7.9630   45.9650  112.9730 C.3    31  ASP31       0.1674
     26  C          7.1030   45.0080  113.8070 C.2    31  ASP31       0.2266
     27  O          7.6170   44.3190  114.6920 O.2    31  ASP31      -0.2867
     28  CB         9.2000   45.2220  112.4480 C.3    31  ASP31       0.1410
     29  CG         8.8610   43.9760  111.6610 C.2    31  ASP31       0.3668
     30  OD1        9.7350   43.0960  111.5730 O.co2  31  ASP31      -0.2456
     31  OD2        7.7440   43.8710  111.1210 O.co2  31  ASP31      -0.2456
     32  N          6.0210   42.5730  112.6530 N.3    33  GLY33      -0.1210
     33  CA         6.3520   41.2940  112.0510 C.3    33  GLY33       0.1956
     34  C          7.4990   40.5280  112.6820 C.2    33  GLY33       0.2612
     35  O          7.7180   39.3710  112.3510 O.2    33  GLY33      -0.2717
     36  N          8.2460   41.1650  113.5770 N.am   34  SER34      -0.1952
     37  CA         9.3620   40.4960  114.2380 C.3    34  SER34       0.1924
     38  C          9.3630   40.9030  115.6980 C.2    34  SER34       0.2314
     39  O          8.5170   41.6850  116.1100 O.2    34  SER34      -0.2863
     40  CB        10.6980   40.8570  113.5660 C.3    34  SER34       0.2116
     41  OG        10.9280   42.2550  113.5370 O.3    34  SER34      -0.2180
     42  N         16.6880   36.9740  110.4220 N.3    75  ARG75      -0.1231
     43  CA        16.3040   36.7490  109.0390 C.3    75  ARG75       0.1694
     44  C         14.9430   37.3470  108.7730 C.2    75  ARG75       0.2592
     45  O         13.9610   36.9980  109.4180 O.2    75  ARG75      -0.2718
     46  CB        16.2860   35.2520  108.6950 C.3    75  ARG75       0.0321
     47  CG        17.6850   34.6290  108.4820 C.3    75  ARG75       0.0489
     48  CD        17.6240   33.2280  107.8470 C.3    75  ARG75       0.2205
     49  NE        18.3200   32.2280  108.6530 N.pl3  75  ARG75      -0.0865
     50  CZ        19.6370   32.0150  108.6490 C.cat  75  ARG75       0.5346
     51  NH1       20.1500   31.0790  109.4450 N.pl3  75  ARG75       0.1354
     52  NH2       20.4460   32.7050  107.8420 N.pl3  75  ARG75       0.1354
     53  N         14.9000   38.2810  107.8350 N.am   76  TYR76      -0.1962
     54  CA        13.6520   38.9080  107.4640 C.3    76  TYR76       0.1771
     55  C         13.3620   38.5250  106.0230 C.2    76  TYR76       0.2620
     56  O         14.2300   38.0390  105.2980 O.2    76  TYR76      -0.2715
     57  CB        13.7370   40.4280  107.5980 C.3    76  TYR76       0.0574
     58  CG        14.1140   40.9150  108.9840 C.ar   76  TYR76      -0.0198
     59  CD1       15.3760   41.4210  109.2360 C.ar   76  TYR76      -0.0009
     60  CD2       13.1990   40.8940  110.0280 C.ar   76  TYR76      -0.0009
     61  CE1       15.7150   41.8920  110.4680 C.ar   76  TYR76       0.0417
     62  CE2       13.5320   41.3720  111.2780 C.ar   76  TYR76       0.0417
     63  CZ        14.7970   41.8740  111.4890 C.ar   76  TYR76       0.1957
     64  OH        15.1530   42.3870  112.7170 O.3    76  TYR76      -0.2866
     65  N         12.1310   38.7470  105.6090 N.am   77  SER77      -0.1936
     66  CA        11.7180   38.4060  104.2640 C.3    77  SER77       0.2055
     67  C         12.5490   39.0580  103.1470 C.2    77  SER77       0.2644
     68  O         12.8500   38.4200  102.1370 O.2    77  SER77      -0.2714
     69  CB        10.2350   38.7430  104.1200 C.3    77  SER77       0.2130
     70  OG         9.9340   39.1200  102.7940 O.3    77  SER77      -0.2179
     71  N         12.9390   40.3160  103.3170 N.am   78  THR78      -0.1936
     72  CA        13.7110   40.9570  102.2650 C.3    78  THR78       0.2028
     73  C         15.2090   41.1080  102.5100 C.2    78  THR78       0.2642
     74  O         15.9090   41.7000  101.6800 O.2    78  THR78      -0.2714
     75  CB        13.1280   42.3350  101.9130 C.3    78  THR78       0.1808
     76  OG1       12.8290   43.0560  103.1120 O.3    78  THR78      -0.2208
     77  CG2       11.8720   42.1720  101.0850 C.3    78  THR78       0.0379
     78  N         15.7000   40.5690  103.6260 N.am   79  GLY79      -0.1954
     79  CA        17.1210   40.6650  103.9360 C.3    79  GLY79       0.1869
     80  C         17.4960   40.0820  105.2930 C.2    79  GLY79       0.2309
     81  O         16.6330   39.8120  106.1330 O.2    79  GLY79      -0.2863
     82  N         19.3250   44.8700  100.9090 N.3   111  PRO111     -0.2102
     83  CA        18.5970   46.1340  100.6890 C.3   111  PRO111      0.1504
     84  C         18.9300   47.3400  101.5710 C.2   111  PRO111      0.2575
     85  O         18.3790   48.4280  101.3660 O.2   111  PRO111     -0.2718
     86  CB        17.1660   45.7190  100.9420 C.3   111  PRO111      0.0282
     87  CG        17.3630   44.8680  102.1970 C.3   111  PRO111      0.0208
     88  CD        18.5600   43.9940  101.8150 C.3   111  PRO111      0.0893
     89  N         19.8180   47.1770  102.5400 N.am  112  PHE112     -0.1977
     90  CA        20.0640   48.2780  103.4510 C.3   112  PHE112      0.1639
     91  C         20.6130   49.5960  102.9430 C.2   112  PHE112      0.2290
     92  O         20.4190   50.6280  103.5850 O.2   112  PHE112     -0.2864
     93  CB        20.8160   47.7460  104.6610 C.3   112  PHE112      0.0560
     94  CG        20.0140   46.7160  105.4190 C.ar  112  PHE112     -0.0200
     95  CD1       20.3840   45.3880  105.4280 C.ar  112  PHE112     -0.0042
     96  CD2       18.8300   47.0750  106.0380 C.ar  112  PHE112     -0.0042
     97  CE1       19.5890   44.4360  106.0360 C.ar  112  PHE112     -0.0003
     98  CE2       18.0260   46.1270  106.6490 C.ar  112  PHE112     -0.0003
     99  CZ        18.4080   44.8030  106.6470 C.ar  112  PHE112     -0.0000
    100  N         19.3130   51.0050  100.7430 N.3   114  LEU114     -0.1231
    101  CA        18.0910   51.6840  100.2950 C.3   114  LEU114      0.1693
    102  C         17.2730   52.1410  101.5000 C.2   114  LEU114      0.2591
    103  O         16.2220   52.7460  101.3530 O.2   114  LEU114     -0.2718
    104  CB        17.2320   50.7580   99.4360 C.3   114  LEU114      0.0284
    105  CG        17.9210   50.1340   98.2220 C.3   114  LEU114      0.0019
    106  CD1       17.0590   49.0240   97.6680 C.3   114  LEU114      0.0001
    107  CD2       18.1910   51.2030   97.1740 C.3   114  LEU114      0.0001
    108  N         17.7740   51.8490  102.6930 N.am  115  ALA115     -0.1980
    109  CA        17.0900   52.2200  103.9140 C.3   115  ALA115      0.1597
    110  C         17.4200   53.6350  104.3880 C.2   115  ALA115      0.2287
    111  O         18.5910   53.9720  104.6190 O.2   115  ALA115     -0.2864
    112  CB        17.4390   51.2270  105.0030 C.3   115  ALA115      0.0319
    113  N         16.3900   54.5660  107.0950 N.3   117  PHE117     -0.1241
    114  CA        16.4610   54.3400  108.5380 C.3   117  PHE117      0.1605
    115  C         17.6970   53.5320  108.8950 C.2   117  PHE117      0.2264
    116  O         18.3940   53.0470  108.0090 O.2   117  PHE117     -0.2867
    117  CB        15.2290   53.5820  109.0190 C.3   117  PHE117      0.0534
    118  CG        14.9420   52.3560  108.2220 C.ar  117  PHE117     -0.0203
    119  CD1       14.1680   52.4280  107.0760 C.ar  117  PHE117     -0.0042
    120  CD2       15.4710   51.1320  108.5960 C.ar  117  PHE117     -0.0042
    121  CE1       13.9220   51.2980  106.3130 C.ar  117  PHE117     -0.0003
    122  CE2       15.2280   49.9950  107.8340 C.ar  117  PHE117     -0.0003
    123  CZ        14.4520   50.0790  106.6930 C.ar  117  PHE117     -0.0000
    124  N         15.8750   48.4350  113.6070 N.3   120  VAL120     -0.1245
    125  CA        14.5350   47.9170  113.8030 C.3   120  VAL120      0.1561
    126  C         14.1620   47.7100  115.2580 C.2   120  VAL120      0.2260
    127  O         15.0050   47.4260  116.0990 O.2   120  VAL120     -0.2867
    128  CB        14.3690   46.5670  113.0670 C.3   120  VAL120      0.0252
    129  CG1       12.9700   45.9910  113.3260 C.3   120  VAL120      0.0019
    130  CG2       14.6380   46.7540  111.5610 C.3   120  VAL120      0.0019
    131  N         -1.0400   38.2640  108.0450 N.3   217  LEU217     -0.1245
    132  CA        -0.1320   38.8310  109.0260 C.3   217  LEU217      0.1561
    133  C         -0.2920   40.3540  108.8950 C.2   217  LEU217      0.2260
    134  O         -0.2110   40.8890  107.7870 O.2   217  LEU217     -0.2867
    135  CB         1.3050   38.3970  108.7080 C.3   217  LEU217      0.0270
    136  CG         2.3720   38.7630  109.7450 C.3   217  LEU217      0.0019
    137  CD1        2.0400   38.1200  111.0810 C.3   217  LEU217      0.0001
    138  CD2        3.7360   38.3150  109.2650 C.3   217  LEU217      0.0001
    139  N          1.3700   43.4230  109.2330 N.3   219  ASP219     -0.1239
    140  CA         2.7560   43.8330  109.3150 C.3   219  ASP219      0.1674
    141  C          3.1580   45.3010  109.1820 C.2   219  ASP219      0.2266
    142  O          3.2960   45.8180  108.0740 O.2   219  ASP219     -0.2867
    143  CB         3.4910   43.0150  108.2730 C.3   219  ASP219      0.1410
    144  CG         4.9450   42.9720  108.5090 C.2   219  ASP219      0.3668
    145  OD1        5.6300   42.3470  107.6750 O.co2 219  ASP219     -0.2456
    146  OD2        5.3960   43.5540  109.5190 O.co2 219  ASP219     -0.2456
    147  N          5.9700   46.5150  109.5760 N.3   221  GLY221     -0.1210
    148  CA         7.2930   46.5980  108.9950 C.3   221  GLY221      0.1956
    149  C          7.3150   46.1900  107.5370 C.2   221  GLY221      0.2612
    150  O          8.3700   45.8830  106.9820 O.2   221  GLY221     -0.2717
    151  N          6.1460   46.1780  106.9070 N.am  222  ALA222     -0.1965
    152  CA         6.0590   45.8240  105.4990 C.3   222  ALA222      0.1728
    153  C          5.6060   47.0370  104.7050 C.2   222  ALA222      0.2617
    154  O          4.6630   47.7200  105.0910 O.2   222  ALA222     -0.2715
    155  CB         5.0770   44.6800  105.3010 C.3   222  ALA222      0.0334
    156  N          6.2890   47.3060  103.6010 N.am  223  SER223     -0.1936
    157  CA         5.9350   48.4320  102.7530 C.3   223  SER223      0.2055
    158  C          4.6550   48.1320  101.9790 C.2   223  SER223      0.2643
    159  O          3.7460   48.9530  101.9270 O.2   223  SER223     -0.2714
    160  CB         7.0570   48.7300  101.7530 C.3   223  SER223      0.2130
    161  OG         8.2480   49.1250  102.4050 O.3   223  SER223     -0.2179
    162  N          4.5940   46.9490  101.3820 N.am  224  TYR224     -0.1973
    163  CA         3.4400   46.5620  100.5840 C.3   224  TYR224      0.1639
    164  C          2.6080   45.4620  101.2100 C.2   224  TYR224      0.2290
    165  O          2.9580   44.8770  102.2380 O.2   224  TYR224     -0.2864
    166  CB         3.8810   46.0480   99.2080 C.3   224  TYR224      0.0560
    167  CG         4.6420   47.0310   98.3540 C.ar  224  TYR224     -0.0198
    168  CD1        5.2270   46.6290   97.1640 C.ar  224  TYR224     -0.0009
    169  CD2        4.7860   48.3570   98.7370 C.ar  224  TYR224     -0.0009
    170  CE1        5.9420   47.5220   96.3770 C.ar  224  TYR224      0.0417
    171  CE2        5.4990   49.2590   97.9610 C.ar  224  TYR224      0.0417
    172  CZ         6.0770   48.8360   96.7830 C.ar  224  TYR224      0.1957
    173  OH         6.8030   49.7230   96.0240 O.3   224  TYR224     -0.2866
    174  N          1.2800   41.7680  100.8060 N.3   226  SER226     -0.1217
    175  CA         1.8780   40.6080  100.1470 C.3   226  SER226      0.1889
    176  C          1.0510   39.3380  100.2770 C.2   226  SER226      0.2288
    177  O          0.3190   39.1430  101.2540 O.2   226  SER226     -0.2866
    178  CB         3.2630   40.3230  100.7220 C.3   226  SER226      0.2089
    179  OG         3.1630   39.9030  102.0730 O.3   226  SER226     -0.2183
    180  N          3.2720   42.8680   96.2800 N.3   294  HIS294     -0.1241
    181  CA         4.2010   41.9410   95.6520 C.3   294  HIS294      0.1621
    182  C          4.2430   40.6100   96.3990 C.2   294  HIS294      0.2264
    183  O          3.7460   40.5000   97.5220 O.2   294  HIS294     -0.2867
    184  CB         5.6020   42.5630   95.5320 C.3   294  HIS294      0.0745
    185  CG         6.1450   43.1270   96.8080 C.ar  294  HIS294      0.0817
    186  ND1        7.3550   43.7850   96.8680 N.ar  294  HIS294     -0.2268
    187  CD2        5.6570   43.1250   98.0710 C.ar  294  HIS294      0.1154
    188  CE1        7.5930   44.1610   98.1110 C.ar  294  HIS294      0.1986
    189  NE2        6.5770   43.7730   98.8620 N.ar  294  HIS294     -0.2212
    190  N          5.5350   37.3840   98.5100 N.3   296  MET296     -0.1245
    191  CA         6.3790   37.2160   99.6750 C.3   296  MET296      0.1570
    192  C          6.0810   35.8410  100.2750 C.2   296  MET296      0.2261
    193  O          5.0830   35.6540  100.9710 O.2   296  MET296     -0.2867
    194  CB         6.0700   38.3180  100.6850 C.3   296  MET296      0.0387
    195  CG         7.2600   38.8490  101.4390 C.3   296  MET296      0.0595
    196  SD         8.5310   39.6150  100.4130 S.3   296  MET296     -0.1393
    197  CE         7.6080   40.7890   99.4770 C.3   296  MET296      0.0692
    198  N          6.5240   33.4620  102.8850 N.3   298  ILE298     -0.1245
    199  CA         6.9020   33.3390  104.2810 C.3   298  ILE298      0.1561
    200  C          6.8140   31.8740  104.7010 C.2   298  ILE298      0.2260
    201  O          5.7650   31.2400  104.5650 O.2   298  ILE298     -0.2867
    202  CB         5.9560   34.1980  105.1390 C.3   298  ILE298      0.0252
    203  CG1        5.8880   35.6060  104.5350 C.3   298  ILE298      0.0019
    204  CG2        6.4340   34.2300  106.5920 C.3   298  ILE298      0.0019
    205  CD1        4.7260   36.4200  104.9910 C.3   298  ILE298      0.0001
    206  N          4.5840   30.1740  110.4210 N.3   302  THR302     -0.1218
    207  CA         3.8390   31.4160  110.2550 C.3   302  THR302      0.1862
    208  C          3.1920   31.4670  108.8770 C.2   302  THR302      0.2287
    209  O          2.0230   31.8470  108.7440 O.2   302  THR302     -0.2866
    210  CB         4.7450   32.6460  110.4370 C.3   302  THR302      0.1770
    211  OG1        5.1580   32.7370  111.8080 O.3   302  THR302     -0.2211
    212  CG2        4.0080   33.9150  110.0450 C.3   302  THR302      0.0375
    213  N          0.1150   39.2150  103.8790 N.3   307  ALA307     -0.1245
    214  CA         0.6570   40.1510  104.8610 C.3   307  ALA307      0.1562
    215  C          0.1780   41.5600  104.5280 C.2   307  ALA307      0.2260
    216  O          0.4300   42.0730  103.4320 O.2   307  ALA307     -0.2867
    217  CB         2.1760   40.0970  104.8740 C.3   307  ALA307      0.0290
@<TRIPOS>BOND
     1   184   181    1
     2   184   185    1
     3   181   180    1
     4   181   182    1
     5   173   172    1
     6   170   172   ar
     7   170   168   ar
     8   182   183    2
     9   172   171   ar
    10   185   186   ar
    11   185   187   ar
    12   186   188   ar
    13   168   167   ar
    14   107   105    1
    15   106   105    1
    16   171   169   ar
    17   187   189   ar
    18   188   189   ar
    19   105   104    1
    20   167   169   ar
    21   167   166    1
    22   190   191    1
    23     7     5    1
    24   166   163    1
    25   104   101    1
    26   197   196    1
    27   191   192    1
    28   191   194    1
    29   175   176    1
    30   175   178    1
    31   175   174    1
    32   192   193    2
    33   176   177    2
    34   101   100    1
    35   101   102    1
    36     6     5    1
    37   196   195    1
    38     5     2    1
    39   163   164    1
    40   163   162    1
    41   194   195    1
    42    83    82    1
    43    83    86    1
    44    83    84    1
    45   178   179    1
    46    82    88    1
    47    86    87    1
    48    77    75    1
    49   164   165    2
    50   103   102    2
    51    85    84    2
    52   162   158   am
    53   102   108   am
    54    84    89   am
    55     1     2    1
    56    74    73    2
    57     2     3    1
    58   160   161    1
    59   160   157    1
    60    88    87    1
    61    75    72    1
    62    75    76    1
    63   159   158    2
    64   158   157    1
    65    16    14   am
    66    68    67    2
    67    72    73    1
    68    72    71    1
    69    73    78   am
    70    89    90    1
    71   108   109    1
    72   157   156    1
    73    70    69    1
    74   198   199    1
    75     3     4    2
    76     3     8   am
    77    91    90    1
    78    91    92    2
    79    67    71   am
    80    67    66    1
    81    14    13    1
    82    14    15    2
    83   216   215    2
    84    90    93    1
    85   156   153   am
    86    78    79    1
    87     8     9    1
    88    13    12    1
    89   213   214    1
    90   109   110    1
    91   109   112    1
    92    79    80    1
    93    69    66    1
    94    66    65    1
    95   199   200    1
    96   199   202    1
    97   110   111    2
    98   215   214    1
    99   203   205    1
   100   203   202    1
   101   201   200    2
   102    12     9    1
   103    93    94    1
   104   153   154    2
   105   153   152    1
   106   214   217    1
   107     9    10    1
   108   202   204    1
   109    80    81    2
   110    56    55    2
   111   155   152    1
   112    94    95   ar
   113    94    96   ar
   114    95    97   ar
   115   152   151    1
   116    65    55   am
   117    11    10    2
   118    55    54    1
   119    97    99   ar
   120    96    98   ar
   121   121   123   ar
   122   121   119   ar
   123    99    98   ar
   124   123   122   ar
   125   151   149   am
   126   150   149    2
   127   119   118   ar
   128   113   114    1
   129    54    57    1
   130    54    53    1
   131   149   148    1
   132    57    58    1
   133   145   144   ar
   134   134   133    2
   135   122   120   ar
   136    53    44   am
   137    52    50    1
   138    48    47    1
   139    48    49    1
   140   116   115    2
   141   131   132    1
   142   142   141    2
   143   118   120   ar
   144   118   117    1
   145   143   144    1
   146   143   140    1
   147    47    46    1
   148   144   146   ar
   149   114   115    1
   150   114   117    1
   151    50    49    2
   152    50    51    1
   153    46    43    1
   154   135   132    1
   155   135   136    1
   156   209   208    2
   157    44    43    1
   158    44    45    2
   159   208   207    1
   160   133   132    1
   161    58    59   ar
   162    58    60   ar
   163   148   147    1
   164    43    42    1
   165   141   140    1
   166   139   140    1
   167    59    61   ar
   168   138   136    1
   169    23    21    1
   170   136   137    1
   171    60    62   ar
   172   212   210    1
   173    22    21    1
   174   207   206    1
   175   207   210    1
   176   210   211    1
   177    61    63   ar
   178    21    18    1
   179    31    29   ar
   180    62    63   ar
   181    63    64    1
   182   130   128    1
   183    30    29   ar
   184    29    28    1
   185    18    17    1
   186    18    19    1
   187    33    32    1
   188    33    34    1
   189    35    34    2
   190    28    25    1
   191    34    36   am
   192    19    20    2
   193    25    24    1
   194    25    26    1
   195   128   129    1
   196   128   125    1
   197    41    40    1
   198    40    37    1
   199    36    37    1
   200   124   125    1
   201   125   126    1
   202    26    27    2
   203    37    38    1
   204   126   127    2
   205    38    39    2
