@<TRIPOS>MOLECULE
tmp/2g21B00.pdb
 180 173 0 0 0
SMALL
GASTEIGER

@<TRIPOS>ATOM
      1  N         -9.0680   72.9390  123.7420 N.3    11  THR11      -0.1203
      2  CA       -10.4010   72.6410  124.2830 C.3    11  THR11       0.1994
      3  C        -11.5020   73.4760  123.6420 C.2    11  THR11       0.2618
      4  O        -12.6890   73.2190  123.8590 O.2    11  THR11      -0.2717
      5  CB       -10.4940   72.8720  125.8040 C.3    11  THR11       0.1784
      6  OG1      -10.2160   74.2460  126.0890 O.3    11  THR11      -0.2211
      7  CG2       -9.5280   71.9620  126.5580 C.3    11  THR11       0.0376
      8  N        -11.1070   74.4790  122.8680 N.am   12  GLN12      -0.1965
      9  CA       -12.0610   75.3470  122.1980 C.3    12  GLN12       0.1733
     10  C        -11.5970   75.6870  120.7850 C.2    12  GLN12       0.2616
     11  O        -10.4450   76.0730  120.5750 O.2    12  GLN12      -0.2715
     12  CB       -12.2540   76.6430  122.9930 C.3    12  GLN12       0.0408
     13  CG       -12.9340   76.4740  124.3480 C.3    12  GLN12       0.0908
     14  CD       -13.1580   77.8160  125.0550 C.2    12  GLN12       0.2608
     15  OE1      -13.6190   78.7830  124.4430 O.2    12  GLN12      -0.2717
     16  NE2      -12.8480   77.8700  126.3460 N.am   12  GLN12      -0.0878
     17  N        -12.5050   75.5360  119.8270 N.am   13  TYR13      -0.1974
     18  CA       -12.2300   75.8370  118.4300 C.3    13  TYR13       0.1639
     19  C        -13.3670   76.7080  117.9180 C.2    13  TYR13       0.2290
     20  O        -14.5360   76.3370  118.0370 O.2    13  TYR13      -0.2864
     21  CB       -12.1400   74.5460  117.5990 C.3    13  TYR13       0.0560
     22  CG       -10.9640   73.6600  117.9600 C.ar   13  TYR13      -0.0198
     23  CD1      -10.9600   72.9130  119.1300 C.ar   13  TYR13      -0.0009
     24  CD2       -9.8360   73.6050  117.1460 C.ar   13  TYR13      -0.0009
     25  CE1       -9.8640   72.1370  119.4850 C.ar   13  TYR13       0.0417
     26  CE2       -8.7330   72.8340  117.4920 C.ar   13  TYR13       0.0417
     27  CZ        -8.7530   72.1040  118.6610 C.ar   13  TYR13       0.1957
     28  OH        -7.6540   71.3520  119.0020 O.3    13  TYR13      -0.2866
     29  N        -18.4160   78.6590  117.5290 N.3    29  VAL29      -0.1245
     30  CA       -18.0420   77.2600  117.4190 C.3    29  VAL29       0.1561
     31  C        -19.0260   76.5870  116.4660 C.2    29  VAL29       0.2260
     32  O        -20.2410   76.7700  116.5950 O.2    29  VAL29      -0.2867
     33  CB       -18.1360   76.5480  118.7930 C.3    29  VAL29       0.0252
     34  CG1      -17.8770   75.0590  118.6360 C.3    29  VAL29       0.0019
     35  CG2      -17.1590   77.1730  119.7790 C.3    29  VAL29       0.0019
     36  N        -20.7490   73.5760  115.7840 N.3    31  ASP31      -0.1239
     37  CA       -21.1300   72.4330  116.6020 C.3    31  ASP31       0.1674
     38  C        -22.1000   71.4050  115.9870 C.2    31  ASP31       0.2266
     39  O        -23.2820   71.6960  115.8080 O.2    31  ASP31      -0.2867
     40  CB       -21.7120   73.0470  117.8830 C.3    31  ASP31       0.1410
     41  CG       -22.3000   72.0390  118.8270 C.2    31  ASP31       0.3668
     42  OD1      -23.1210   72.4680  119.6630 O.co2  31  ASP31      -0.2456
     43  OD2      -21.9460   70.8490  118.7570 O.co2  31  ASP31      -0.2456
     44  N        -23.1420   68.9640  117.4430 N.3    33  GLY33      -0.1225
     45  CA       -23.9220   68.4760  118.5700 C.3    33  GLY33       0.1811
     46  C        -25.1530   69.3240  118.8900 C.2    33  GLY33       0.2280
     47  O        -25.8040   69.1240  119.9180 O.2    33  GLY33      -0.2866
     48  N        -26.9460   72.9420  126.8760 N.3    76  TYR76      -0.1227
     49  CA       -25.8130   72.1490  126.4140 C.3    76  TYR76       0.1736
     50  C        -25.3310   71.2560  127.5510 C.2    76  TYR76       0.2596
     51  O        -25.6640   71.4880  128.7120 O.2    76  TYR76      -0.2718
     52  CB       -24.6680   73.0500  125.9320 C.3    76  TYR76       0.0548
     53  CG       -25.0310   73.8980  124.7360 C.ar   76  TYR76      -0.0200
     54  CD1      -25.3500   75.2450  124.8820 C.ar   76  TYR76      -0.0009
     55  CD2      -25.1120   73.3390  123.4650 C.ar   76  TYR76      -0.0009
     56  CE1      -25.7420   76.0050  123.8010 C.ar   76  TYR76       0.0417
     57  CE2      -25.5030   74.0950  122.3790 C.ar   76  TYR76       0.0417
     58  CZ       -25.8200   75.4250  122.5540 C.ar   76  TYR76       0.1957
     59  OH       -26.2360   76.1750  121.4800 O.3    76  TYR76      -0.2866
     60  N        -24.5630   70.2270  127.2030 N.am   77  SER77      -0.1938
     61  CA       -24.0260   69.2940  128.1860 C.3    77  SER77       0.2055
     62  C        -23.5420   70.0990  129.3770 C.2    77  SER77       0.2644
     63  O        -23.7870   69.7480  130.5310 O.2    77  SER77      -0.2714
     64  CB       -22.8400   68.5200  127.5970 C.3    77  SER77       0.2130
     65  OG       -23.1820   67.8950  126.3740 O.3    77  SER77      -0.2179
     66  N        -22.8550   71.1930  129.0790 N.am   78  THR78      -0.1936
     67  CA       -22.3160   72.0520  130.1100 C.3    78  THR78       0.2028
     68  C        -23.2610   73.1890  130.5080 C.2    78  THR78       0.2642
     69  O        -24.0640   73.0330  131.4280 O.2    78  THR78      -0.2714
     70  CB       -20.9420   72.5990  129.6730 C.3    78  THR78       0.1808
     71  OG1      -21.0170   73.0950  128.3310 O.3    78  THR78      -0.2208
     72  CG2      -19.9070   71.4890  129.7210 C.3    78  THR78       0.0379
     73  N        -23.1910   74.3200  129.8170 N.am   79  GLY79      -0.1954
     74  CA       -24.0480   75.4410  130.1700 C.3    79  GLY79       0.1869
     75  C        -25.4030   75.5410  129.4890 C.2    79  GLY79       0.2309
     76  O        -25.8000   74.6700  128.7110 O.2    79  GLY79      -0.2863
     77  N        -20.7480   78.2630  131.9950 N.3   111  PRO111     -0.2102
     78  CA       -19.2970   78.3170  131.8250 C.3   111  PRO111      0.1504
     79  C        -18.8830   79.4000  130.8350 C.2   111  PRO111      0.2575
     80  O        -17.7220   79.4740  130.4330 O.2   111  PRO111     -0.2718
     81  CB       -18.9930   76.9390  131.2790 C.3   111  PRO111      0.0282
     82  CG       -20.1170   76.7810  130.2820 C.3   111  PRO111      0.0208
     83  CD       -21.3460   77.3590  130.9940 C.3   111  PRO111      0.0893
     84  N        -19.8270   80.2470  130.4470 N.am  112  PHE112     -0.1977
     85  CA       -19.5370   81.2640  129.4480 C.3   112  PHE112      0.1639
     86  C        -18.4700   82.3080  129.7450 C.2   112  PHE112      0.2290
     87  O        -18.0930   83.0690  128.8590 O.2   112  PHE112     -0.2864
     88  CB       -20.8460   81.9050  128.9940 C.3   112  PHE112      0.0560
     89  CG       -21.8410   80.8980  128.5000 C.ar  112  PHE112     -0.0200
     90  CD1      -22.7050   80.2680  129.3800 C.ar  112  PHE112     -0.0042
     91  CD2      -21.8350   80.4930  127.1760 C.ar  112  PHE112     -0.0042
     92  CE1      -23.5400   79.2500  128.9520 C.ar  112  PHE112     -0.0003
     93  CE2      -22.6670   79.4730  126.7420 C.ar  112  PHE112     -0.0003
     94  CZ       -23.5190   78.8520  127.6320 C.ar  112  PHE112     -0.0000
     95  N        -15.7510   81.2990  130.5430 N.3   114  LEU114     -0.1231
     96  CA       -14.6350   80.4690  130.1020 C.3   114  LEU114      0.1693
     97  C        -14.6320   80.4540  128.5790 C.2   114  LEU114      0.2591
     98  O        -13.5960   80.2790  127.9440 O.2   114  LEU114     -0.2718
     99  CB       -14.8010   79.0340  130.6040 C.3   114  LEU114      0.0284
    100  CG       -14.9060   78.8190  132.1100 C.3   114  LEU114      0.0019
    101  CD1      -15.0850   77.3390  132.4090 C.3   114  LEU114      0.0001
    102  CD2      -13.6570   79.3460  132.7750 C.3   114  LEU114      0.0001
    103  N        -15.8120   80.6400  128.0020 N.am  115  ALA115     -0.1980
    104  CA       -15.9740   80.6390  126.5540 C.3   115  ALA115      0.1597
    105  C        -15.1910   81.7500  125.8530 C.2   115  ALA115      0.2287
    106  O        -15.5240   82.9320  125.9720 O.2   115  ALA115     -0.2864
    107  CB       -17.4510   80.7480  126.2080 C.3   115  ALA115      0.0319
    108  N        -15.2010   82.0930  122.8610 N.3   117  PHE117     -0.1241
    109  CA       -16.0050   82.4070  121.6930 C.3   117  PHE117      0.1605
    110  C        -17.2340   83.2080  122.1220 C.2   117  PHE117      0.2264
    111  O        -17.5150   83.3380  123.3150 O.2   117  PHE117     -0.2867
    112  CB       -16.4420   81.1200  120.9840 C.3   117  PHE117      0.0534
    113  CG       -17.0620   80.1000  121.9000 C.ar  117  PHE117     -0.0203
    114  CD1      -16.2630   79.2780  122.6860 C.ar  117  PHE117     -0.0042
    115  CD2      -18.4450   79.9710  121.9880 C.ar  117  PHE117     -0.0042
    116  CE1      -16.8320   78.3450  123.5430 C.ar  117  PHE117     -0.0003
    117  CE2      -19.0170   79.0430  122.8410 C.ar  117  PHE117     -0.0003
    118  CZ       -18.2100   78.2280  123.6210 C.ar  117  PHE117     -0.0000
    119  N        -22.6040   80.2100  118.9660 N.3   120  VAL120     -0.1245
    120  CA       -22.5830   78.8550  118.4590 C.3   120  VAL120      0.1561
    121  C        -23.3680   78.7480  117.1600 C.2   120  VAL120      0.2260
    122  O        -24.4210   79.3650  116.9970 O.2   120  VAL120     -0.2867
    123  CB       -23.2030   77.8770  119.4880 C.3   120  VAL120      0.0252
    124  CG1      -23.2780   76.4740  118.9060 C.3   120  VAL120      0.0019
    125  CG2      -22.3830   77.8790  120.7640 C.3   120  VAL120      0.0019
    126  N         -9.2880   70.0760  113.0370 N.3   155  TYR155     -0.1241
    127  CA        -8.8980   70.6830  114.3120 C.3   155  TYR155      0.1605
    128  C         -7.4210   70.3360  114.4910 C.2   155  TYR155      0.2264
    129  O         -7.0440   69.1560  114.5230 O.2   155  TYR155     -0.2867
    130  CB        -9.6870   70.0990  115.4960 C.3   155  TYR155      0.0534
    131  CG       -11.0800   70.6550  115.7280 C.ar  155  TYR155     -0.0201
    132  CD1      -11.8890   70.1330  116.7370 C.ar  155  TYR155     -0.0009
    133  CD2      -11.6000   71.6780  114.9390 C.ar  155  TYR155     -0.0009
    134  CE1      -13.1710   70.6050  116.9530 C.ar  155  TYR155      0.0417
    135  CE2      -12.8850   72.1610  115.1480 C.ar  155  TYR155      0.0417
    136  CZ       -13.6660   71.6180  116.1560 C.ar  155  TYR155      0.1957
    137  OH       -14.9480   72.0820  116.3700 O.3   155  TYR155     -0.2866
    138  N        -19.2610   64.7930  117.9260 N.3   215  ASP215     -0.1225
    139  CA       -19.5710   66.1630  118.3430 C.3   215  ASP215      0.1805
    140  C        -18.4310   67.1750  118.2570 C.2   215  ASP215      0.2598
    141  O        -17.5830   67.2440  119.1520 O.2   215  ASP215     -0.2718
    142  CB       -20.1070   66.0900  119.7830 C.3   215  ASP215      0.1424
    143  CG       -20.6390   67.4190  120.3030 C.2   215  ASP215      0.3668
    144  OD1      -21.0940   67.4260  121.4700 O.co2 215  ASP215     -0.2456
    145  OD2      -20.6090   68.4350  119.5740 O.co2 215  ASP215     -0.2456
    146  N        -18.4380   67.9730  117.1900 N.am  216  THR216     -0.1939
    147  CA       -17.4140   68.9920  116.9560 C.3   216  THR216      0.2028
    148  C        -17.5230   70.1350  117.9570 C.2   216  THR216      0.2643
    149  O        -16.6380   70.9920  118.0420 O.2   216  THR216     -0.2714
    150  CB       -17.5410   69.6050  115.5460 C.3   216  THR216      0.1808
    151  OG1      -18.7680   70.3420  115.4590 O.3   216  THR216     -0.2208
    152  CG2      -17.5320   68.5110  114.4710 C.3   216  THR216      0.0379
    153  N        -18.6240   70.1560  118.7010 N.am  217  GLY217     -0.1939
    154  CA       -18.8270   71.2020  119.6850 C.3   217  GLY217      0.2014
    155  C        -18.3770   70.8050  121.0780 C.2   217  GLY217      0.2639
    156  O        -18.5510   71.5760  122.0300 O.2   217  GLY217     -0.2714
    157  N        -17.8010   69.6070  121.2010 N.am  218  ALA218     -0.1963
    158  CA       -17.3190   69.1050  122.4910 C.3   218  ALA218      0.1728
    159  C        -15.7930   69.0210  122.5100 C.2   218  ALA218      0.2616
    160  O        -15.1610   68.5780  121.5440 O.2   218  ALA218     -0.2715
    161  CB       -17.9240   67.7390  122.7760 C.3   218  ALA218      0.0334
    162  N        -15.2020   69.4310  123.6230 N.am  219  SER219     -0.1950
    163  CA       -13.7540   69.4360  123.7610 C.3   219  SER219      0.1924
    164  C        -13.0960   68.0680  123.7970 C.2   219  SER219      0.2314
    165  O        -11.9820   67.8980  123.3020 O.2   219  SER219     -0.2863
    166  CB       -13.3580   70.1830  125.0340 C.3   219  SER219      0.2116
    167  OG       -13.9390   71.4740  125.0670 O.3   219  SER219     -0.2180
    168  N        -19.0400   61.9430  130.6570 N.3   292  MET292     -0.1245
    169  CA       -20.1200   62.8490  130.2970 C.3   292  MET292      0.1570
    170  C        -21.4050   62.0490  130.1860 C.2   292  MET292      0.2261
    171  O        -21.6150   61.3260  129.2160 O.2   292  MET292     -0.2867
    172  CB       -19.8260   63.5320  128.9620 C.3   292  MET292      0.0387
    173  CG       -20.6680   64.7680  128.7100 C.3   292  MET292      0.0595
    174  SD       -20.0960   66.1930  129.6630 S.3   292  MET292     -0.1393
    175  CE       -19.0160   66.9700  128.4620 C.3   292  MET292      0.0692
    176  N        -13.4140   67.1250  120.1060 N.3   306  ALA306     -0.1245
    177  CA       -12.1420   67.6750  119.6550 C.3   306  ALA306      0.1562
    178  C        -10.9910   66.6730  119.6700 C.2   306  ALA306      0.2260
    179  O        -10.2480   66.5700  118.6960 O.2   306  ALA306     -0.2867
    180  CB       -11.7840   68.8960  120.4990 C.3   306  ALA306      0.0290
@<TRIPOS>BOND
     1   126   127    1
     2   127   128    1
     3   127   130    1
     4   152   150    1
     5   128   129    2
     6   133   135   ar
     7   133   131   ar
     8   135   136   ar
     9   151   150    1
    10   130   131    1
    11   150   147    1
    12   131   132   ar
    13    36    37    1
    14    39    38    2
    15    38    37    1
    16   136   137    1
    17   136   134   ar
    18    31    32    2
    19    31    30    1
    20    37    40    1
    21   132   134   ar
    22   147   146    1
    23   147   148    1
    24   122   121    2
    25    24    26   ar
    26    24    22   ar
    27   121   120    1
    28   146   140   am
    29    30    29    1
    30    30    33    1
    31    44    45    1
    32    26    27   ar
    33    21    22    1
    34    21    18    1
    35    40    41    1
    36    19    20    2
    37    19    18    1
    38   138   139    1
    39   148   149    2
    40   148   153   am
    41    22    23   ar
    42   140   139    1
    43   140   141    2
    44   139   142    1
    45    18    17    1
    46   120   119    1
    47   120   123    1
    48    45    46    1
    49    34    33    1
    50    27    28    1
    51    27    25   ar
    52   179   178    2
    53   153   154    1
    54    43    41   ar
    55    33    35    1
    56    41    42   ar
    57    46    47    2
    58   124   123    1
    59    23    25   ar
    60   123   125    1
    61   145   143   ar
    62   177   178    1
    63   177   176    1
    64   177   180    1
    65   154   155    1
    66   142   143    1
    67    17    10   am
    68   143   144   ar
    69    11    10    2
    70    10     9    1
    71   112   109    1
    72   112   113    1
    73   155   157   am
    74   155   156    2
    75   157   158    1
    76    59    58    1
    77   160   159    2
    78   109   110    1
    79   109   108    1
    80   113   115   ar
    81   113   114   ar
    82   115   117   ar
    83   110   111    2
    84     9     8    1
    85     9    12    1
    86    57    58   ar
    87    57    55   ar
    88   158   159    1
    89   158   161    1
    90   159   162   am
    91    58    56   ar
    92   114   116   ar
    93   117   118   ar
    94     8     3   am
    95    12    13    1
    96   165   164    2
    97    55    53   ar
    98   116   118   ar
    99   162   163    1
   100     3     4    2
   101     3     2    1
   102     1     2    1
   103   163   164    1
   104   163   166    1
   105    56    54   ar
   106     2     5    1
   107    13    14    1
   108    15    14    2
   109    53    54   ar
   110    53    52    1
   111   166   167    1
   112    14    16   am
   113     5     6    1
   114     5     7    1
   115   105   106    2
   116   105   104    1
   117    52    49    1
   118   107   104    1
   119    65    64    1
   120    49    48    1
   121    49    50    1
   122   104   103    1
   123    93    91   ar
   124    93    94   ar
   125    91    89   ar
   126    60    50   am
   127    60    61    1
   128    50    51    2
   129    64    61    1
   130    94    92   ar
   131    98    97    2
   132   103    97   am
   133    61    62    1
   134    71    70    1
   135   175   174    1
   136    89    88    1
   137    89    90   ar
   138    97    96    1
   139   173   172    1
   140   173   174    1
   141    76    75    2
   142    87    86    2
   143    92    90   ar
   144   172   169    1
   145    88    85    1
   146    66    62   am
   147    66    67    1
   148   171   170    2
   149    62    63    2
   150    85    86    1
   151    85    84    1
   152    75    74    1
   153    70    72    1
   154    70    67    1
   155    73    74    1
   156    73    68   am
   157    96    95    1
   158    96    99    1
   159    67    68    1
   160   170   169    1
   161    82    83    1
   162    82    81    1
   163   169   168    1
   164    80    79    2
   165    84    79   am
   166    68    69    2
   167    99   100    1
   168    79    78    1
   169    83    77    1
   170    81    78    1
   171    78    77    1
   172   100   101    1
   173   100   102    1
