@<TRIPOS>MOLECULE
tmp/2g22A01.pdb
 222 216 0 0 0
SMALL
GASTEIGER

@<TRIPOS>ATOM
      1  N         89.4990   28.3800   66.3160 N.3    11  THR11      -0.1203
      2  CA        88.1220   27.9100   66.4290 C.3    11  THR11       0.1994
      3  C         87.8400   27.1620   67.7230 C.2    11  THR11       0.2618
      4  O         86.6840   26.9150   68.0650 O.2    11  THR11      -0.2717
      5  CB        87.7280   26.9950   65.2370 C.3    11  THR11       0.1784
      6  OG1       88.6150   25.8680   65.1620 O.3    11  THR11      -0.2211
      7  CG2       87.7930   27.7710   63.9350 C.3    11  THR11       0.0376
      8  N         88.8960   26.7990   68.4440 N.am   12  GLN12      -0.1965
      9  CA        88.7390   26.0870   69.7060 C.3    12  GLN12       0.1733
     10  C         89.7090   26.6100   70.7580 C.2    12  GLN12       0.2616
     11  O         90.9180   26.6980   70.5100 O.2    12  GLN12      -0.2715
     12  CB        88.9640   24.5870   69.4970 C.3    12  GLN12       0.0408
     13  CG        87.8530   23.9080   68.7060 C.3    12  GLN12       0.0908
     14  CD        88.1820   22.4710   68.3490 C.2    12  GLN12       0.2608
     15  OE1       88.6030   21.6860   69.1960 O.2    12  GLN12      -0.2717
     16  NE2       87.9860   22.1210   67.0890 N.am   12  GLN12      -0.0878
     17  N         89.1750   26.9700   71.9220 N.am   13  TYR13      -0.1974
     18  CA        89.9910   27.4570   73.0290 C.3    13  TYR13       0.1639
     19  C         89.7130   26.5630   74.2330 C.2    13  TYR13       0.2290
     20  O         88.5590   26.4390   74.6730 O.2    13  TYR13      -0.2864
     21  CB        89.6410   28.9080   73.3770 C.3    13  TYR13       0.0560
     22  CG        90.0420   29.9310   72.3360 C.ar   13  TYR13      -0.0198
     23  CD1       89.2060   30.2330   71.2750 C.ar   13  TYR13      -0.0009
     24  CD2       91.2660   30.5910   72.4160 C.ar   13  TYR13      -0.0009
     25  CE1       89.5750   31.1630   70.3230 C.ar   13  TYR13       0.0417
     26  CE2       91.6440   31.5220   71.4730 C.ar   13  TYR13       0.0417
     27  CZ        90.7980   31.8040   70.4280 C.ar   13  TYR13       0.1957
     28  OH        91.1670   32.7210   69.4730 O.3    13  TYR13      -0.2866
     29  N         86.7000   23.0360   77.3960 N.3    29  VAL29      -0.1245
     30  CA        86.3260   24.3830   76.9710 C.3    29  VAL29       0.1561
     31  C         85.4850   25.0660   78.0550 C.2    29  VAL29       0.2260
     32  O         84.4730   24.5270   78.4990 O.2    29  VAL29      -0.2867
     33  CB        85.4850   24.3770   75.6750 C.3    29  VAL29       0.0252
     34  CG1       85.1170   25.8010   75.2960 C.3    29  VAL29       0.0019
     35  CG2       86.2520   23.7260   74.5480 C.3    29  VAL29       0.0019
     36  N         82.8720   27.2040   78.8520 N.3    31  ASP31      -0.1239
     37  CA        81.7120   27.6150   78.0800 C.3    31  ASP31       0.1674
     38  C         80.6150   28.3670   78.8160 C.2    31  ASP31       0.2266
     39  O         79.9300   27.7910   79.6520 O.2    31  ASP31      -0.2867
     40  CB        81.1430   26.3350   77.4610 C.3    31  ASP31       0.1410
     41  CG        79.8450   26.5450   76.7430 C.2    31  ASP31       0.3668
     42  OD1       79.1220   25.5390   76.5630 O.co2  31  ASP31      -0.2456
     43  OD2       79.5600   27.6930   76.3500 O.co2  31  ASP31      -0.2456
     44  N         78.0690   29.2770   77.4440 N.3    33  GLY33      -0.1225
     45  CA        76.8420   28.9100   76.7660 C.3    33  GLY33       0.1811
     46  C         76.1670   27.6720   77.3300 C.2    33  GLY33       0.2280
     47  O         75.1250   27.2600   76.8250 O.2    33  GLY33      -0.2866
     48  N         81.3330   17.9920   81.9140 N.3    38  TRP38      -0.1241
     49  CA        81.4070   16.6140   81.4300 C.3    38  TRP38       0.1605
     50  C         82.7340   16.3310   80.7500 C.2    38  TRP38       0.2264
     51  O         83.3680   17.2370   80.2030 O.2    38  TRP38      -0.2867
     52  CB        80.2750   16.2960   80.4510 C.3    38  TRP38       0.0550
     53  CG        80.3620   17.0300   79.1490 C.ar   38  TRP38       0.0003
     54  CD1       79.8590   18.2590   78.8720 C.ar   38  TRP38       0.0946
     55  CD2       81.0190   16.5820   77.9510 C.ar   38  TRP38       0.0152
     56  NE1       80.1570   18.6110   77.5750 N.ar   38  TRP38      -0.2442
     57  CE2       80.8690   17.6000   76.9900 C.ar   38  TRP38       0.0810
     58  CE3       81.7230   15.4200   77.6030 C.ar   38  TRP38       0.0012
     59  CZ2       81.3930   17.4970   75.7000 C.ar   38  TRP38       0.0191
     60  CZ3       82.2440   15.3150   76.3220 C.ar   38  TRP38       0.0001
     61  CH2       82.0750   16.3510   75.3840 C.ar   38  TRP38       0.0015
     62  N         73.8800   20.7620   72.3710 N.3    76  TYR76      -0.1227
     63  CA        74.4550   22.0150   71.9250 C.3    76  TYR76       0.1736
     64  C         73.8650   22.1920   70.5340 C.2    76  TYR76       0.2596
     65  O         73.2890   21.2520   69.9850 O.2    76  TYR76      -0.2718
     66  CB        75.9820   21.9160   71.8720 C.3    76  TYR76       0.0548
     67  CG        76.6030   21.5640   73.2020 C.ar   76  TYR76      -0.0200
     68  CD1       76.9600   20.2570   73.5050 C.ar   76  TYR76      -0.0009
     69  CD2       76.8060   22.5390   74.1730 C.ar   76  TYR76      -0.0009
     70  CE1       77.4960   19.9340   74.7290 C.ar   76  TYR76       0.0417
     71  CE2       77.3430   22.2270   75.4010 C.ar   76  TYR76       0.0417
     72  CZ        77.6870   20.9240   75.6750 C.ar   76  TYR76       0.1957
     73  OH        78.2240   20.6110   76.9030 O.3    76  TYR76      -0.2866
     74  N         73.9960   23.3780   69.9590 N.am   77  SER77      -0.1938
     75  CA        73.4270   23.6270   68.6370 C.3    77  SER77       0.2055
     76  C         74.0660   22.8140   67.5210 C.2    77  SER77       0.2644
     77  O         73.4990   22.6800   66.4470 O.2    77  SER77      -0.2714
     78  CB        73.5270   25.1160   68.3090 C.3    77  SER77       0.2130
     79  OG        72.8510   25.8880   69.2890 O.3    77  SER77      -0.2179
     80  N         75.2330   22.2450   67.7870 N.am   78  THR78      -0.1936
     81  CA        75.9510   21.4900   66.7700 C.3    78  THR78       0.2028
     82  C         76.2260   20.0320   67.1110 C.2    78  THR78       0.2642
     83  O         76.9200   19.3390   66.3620 O.2    78  THR78      -0.2714
     84  CB        77.3030   22.1680   66.4720 C.3    78  THR78       0.1808
     85  OG1       78.0090   22.3740   67.7040 O.3    78  THR78      -0.2208
     86  CG2       77.0870   23.5040   65.7920 C.3    78  THR78       0.0379
     87  N         75.6990   19.5640   68.2340 N.am   79  GLY79      -0.1954
     88  CA        75.9430   18.1860   68.6060 C.3    79  GLY79       0.1869
     89  C         75.4220   17.8320   69.9790 C.2    79  GLY79       0.2309
     90  O         75.1270   18.7120   70.7930 O.2    79  GLY79      -0.2863
     91  N         80.1650   15.9150   65.7630 N.3   111  PRO111     -0.2102
     92  CA        81.4580   16.5450   65.4960 C.3   111  PRO111      0.1504
     93  C         82.6320   16.2360   66.4220 C.2   111  PRO111      0.2575
     94  O         83.7230   16.7430   66.1730 O.2   111  PRO111     -0.2718
     95  CB        81.1200   18.0080   65.6230 C.3   111  PRO111      0.0282
     96  CG        80.3130   17.9560   66.9220 C.3   111  PRO111      0.0208
     97  CD        79.3850   16.7520   66.6940 C.3   111  PRO111      0.0893
     98  N         82.4510   15.4290   67.4630 N.am  112  PHE112     -0.1977
     99  CA        83.5460   15.2400   68.4170 C.3   112  PHE112      0.1639
    100  C         84.8930   14.6700   67.9880 C.2   112  PHE112      0.2290
    101  O         85.8770   14.8010   68.7220 O.2   112  PHE112     -0.2864
    102  CB        83.0060   14.5610   69.6810 C.3   112  PHE112      0.0560
    103  CG        81.9190   15.3590   70.3330 C.ar  112  PHE112     -0.0200
    104  CD1       80.5900   15.0510   70.1200 C.ar  112  PHE112     -0.0042
    105  CD2       82.2220   16.5290   71.0050 C.ar  112  PHE112     -0.0042
    106  CE1       79.5880   15.9050   70.5530 C.ar  112  PHE112     -0.0003
    107  CE2       81.2250   17.3810   71.4350 C.ar  112  PHE112     -0.0003
    108  CZ        79.9070   17.0690   71.2050 C.ar  112  PHE112     -0.0000
    109  N         86.3250   15.9090   65.6310 N.3   114  LEU114     -0.1231
    110  CA        86.9520   17.1550   65.2260 C.3   114  LEU114      0.1693
    111  C         87.2530   18.0130   66.4430 C.2   114  LEU114      0.2591
    112  O         87.7280   19.1350   66.3080 O.2   114  LEU114     -0.2718
    113  CB        86.0410   17.9370   64.2850 C.3   114  LEU114      0.0284
    114  CG        85.5260   17.2560   63.0140 C.3   114  LEU114      0.0019
    115  CD1       84.7320   18.2710   62.2130 C.3   114  LEU114      0.0001
    116  CD2       86.6810   16.7120   62.1870 C.3   114  LEU114      0.0001
    117  N         86.9710   17.4890   67.6300 N.am  115  ALA115     -0.1980
    118  CA        87.2320   18.2270   68.8560 C.3   115  ALA115      0.1597
    119  C         88.6300   17.9700   69.3930 C.2   115  ALA115      0.2287
    120  O         89.0440   16.8250   69.5740 O.2   115  ALA115     -0.2864
    121  CB        86.2100   17.8600   69.9110 C.3   115  ALA115      0.0319
    122  N         89.4870   19.2560   72.2720 N.3   117  PHE117     -0.1241
    123  CA        89.2670   19.1310   73.7050 C.3   117  PHE117      0.1605
    124  C         88.5980   17.8080   73.9760 C.2   117  PHE117      0.2264
    125  O         88.1540   17.1390   73.0460 O.2   117  PHE117     -0.2867
    126  CB        88.3780   20.2670   74.2420 C.3   117  PHE117      0.0534
    127  CG        87.1100   20.4840   73.4520 C.ar  117  PHE117     -0.0203
    128  CD1       87.1210   21.2400   72.2820 C.ar  117  PHE117     -0.0042
    129  CD2       85.9030   19.9510   73.8820 C.ar  117  PHE117     -0.0042
    130  CE1       85.9500   21.4640   71.5580 C.ar  117  PHE117     -0.0003
    131  CE2       84.7330   20.1690   73.1630 C.ar  117  PHE117     -0.0003
    132  CZ        84.7590   20.9300   71.9970 C.ar  117  PHE117     -0.0000
    133  N         83.7770   19.5870   78.5680 N.3   120  VAL120     -0.1245
    134  CA        83.3470   20.9540   78.7670 C.3   120  VAL120      0.1561
    135  C         83.0920   21.3240   80.2160 C.2   120  VAL120      0.2260
    136  O         82.7140   20.4910   81.0360 O.2   120  VAL120     -0.2867
    137  CB        82.0450   21.2230   77.9840 C.3   120  VAL120      0.0252
    138  CG1       81.6150   22.6710   78.1640 C.3   120  VAL120      0.0019
    139  CG2       82.2390   20.8730   76.5010 C.3   120  VAL120      0.0019
    140  N         90.8330   35.7790   74.5420 N.3   155  TYR155     -0.1241
    141  CA        91.1010   34.8410   73.4520 C.3   155  TYR155      0.1605
    142  C         92.0500   35.5460   72.5060 C.2   155  TYR155      0.2264
    143  O         91.6820   36.5260   71.8520 O.2   155  TYR155     -0.2867
    144  CB        89.8280   34.4860   72.6860 C.3   155  TYR155      0.0534
    145  CG        88.9490   33.4400   73.3290 C.ar  155  TYR155     -0.0201
    146  CD1       87.7030   33.1560   72.8060 C.ar  155  TYR155     -0.0009
    147  CD2       89.3540   32.7500   74.4500 C.ar  155  TYR155     -0.0009
    148  CE1       86.8830   32.2240   73.3770 C.ar  155  TYR155      0.0417
    149  CE2       88.5410   31.8100   75.0300 C.ar  155  TYR155      0.0417
    150  CZ        87.2990   31.5520   74.4870 C.ar  155  TYR155      0.1957
    151  OH        86.4570   30.6210   75.0570 O.3   155  TYR155     -0.2866
    152  N         78.5100   33.7600   74.0830 N.3   219  ASP219     -0.1225
    153  CA        78.9700   32.3810   74.1960 C.3   219  ASP219      0.1805
    154  C         80.4810   32.1270   74.0410 C.2   219  ASP219      0.2598
    155  O         81.0020   32.1020   72.9240 O.2   219  ASP219     -0.2718
    156  CB        78.1840   31.5630   73.1600 C.3   219  ASP219      0.1424
    157  CG        78.1790   30.0800   73.4490 C.2   219  ASP219      0.3668
    158  OD1       77.3790   29.3710   72.7970 O.co2 219  ASP219     -0.2456
    159  OD2       78.9650   29.6230   74.3120 O.co2 219  ASP219     -0.2456
    160  N         81.1740   31.9100   75.1570 N.am  220  THR220     -0.1939
    161  CA        82.6110   31.6360   75.1070 C.3   220  THR220      0.2028
    162  C         82.8610   30.2400   74.5410 C.2   220  THR220      0.2643
    163  O         83.9880   29.8980   74.1880 O.2   220  THR220     -0.2714
    164  CB        83.2880   31.7120   76.5060 C.3   220  THR220      0.1808
    165  OG1       82.6820   30.7630   77.3930 O.3   220  THR220     -0.2208
    166  CG2       83.1680   33.1180   77.0880 C.3   220  THR220      0.0379
    167  N         81.8010   29.4400   74.4490 N.am  221  GLY221     -0.1939
    168  CA        81.9390   28.0920   73.9270 C.3   221  GLY221      0.2014
    169  C         81.6400   27.9980   72.4390 C.2   221  GLY221      0.2639
    170  O         81.6780   26.9090   71.8590 O.2   221  GLY221     -0.2714
    171  N         81.3420   29.1410   71.8230 N.am  222  ALA222     -0.1963
    172  CA        81.0270   29.1890   70.4010 C.3   222  ALA222      0.1728
    173  C         82.1790   29.7430   69.5680 C.2   222  ALA222      0.2617
    174  O         82.7390   30.7970   69.8720 O.2   222  ALA222     -0.2715
    175  CB        79.7730   30.0260   70.1780 C.3   222  ALA222      0.0334
    176  N         82.5190   29.0280   68.5020 N.am  223  SER223     -0.1936
    177  CA        83.5990   29.4390   67.6140 C.3   223  SER223      0.2055
    178  C         83.3560   30.7460   66.8730 C.2   223  SER223      0.2643
    179  O         84.2940   31.4870   66.6040 O.2   223  SER223     -0.2714
    180  CB        83.8690   28.3610   66.5680 C.3   223  SER223      0.2130
    181  OG        84.4330   27.2030   67.1490 O.3   223  SER223     -0.2179
    182  N         82.1060   31.0470   66.5590 N.am  224  TYR224     -0.1973
    183  CA        81.8390   32.2380   65.7700 C.3   224  TYR224      0.1639
    184  C         80.8270   33.2320   66.3190 C.2   224  TYR224      0.2290
    185  O         80.4070   33.1680   67.4750 O.2   224  TYR224     -0.2864
    186  CB        81.3730   31.7940   64.3760 C.3   224  TYR224      0.0560
    187  CG        82.1730   30.6380   63.8140 C.ar  224  TYR224     -0.0198
    188  CD1       81.5920   29.3880   63.6080 C.ar  224  TYR224     -0.0009
    189  CD2       83.5310   30.7900   63.5170 C.ar  224  TYR224     -0.0009
    190  CE1       82.3500   28.3160   63.1230 C.ar  224  TYR224      0.0417
    191  CE2       84.2870   29.7400   63.0360 C.ar  224  TYR224      0.0417
    192  CZ        83.7000   28.5050   62.8420 C.ar  224  TYR224      0.1957
    193  OH        84.4860   27.4710   62.3890 O.3   224  TYR224     -0.2866
    194  N         77.1660   34.4110   65.4070 N.3   226  SER226     -0.1217
    195  CA        76.0590   33.8990   64.6040 C.3   226  SER226      0.1889
    196  C         74.7520   34.6600   64.7900 C.2   226  SER226      0.2288
    197  O         74.5480   35.3430   65.7980 O.2   226  SER226     -0.2866
    198  CB        75.8200   32.4140   64.9140 C.3   226  SER226      0.2089
    199  OG        75.4980   32.2080   66.2810 O.3   226  SER226     -0.2183
    200  N         78.5870   32.8610   61.1970 N.3   294  HIS294     -0.1241
    201  CA        77.7040   31.8090   60.6930 C.3   294  HIS294      0.1621
    202  C         76.2340   32.0420   61.0030 C.2   294  HIS294      0.2264
    203  O         75.8700   32.9040   61.8040 O.2   294  HIS294     -0.2867
    204  CB        78.0910   30.4430   61.2650 C.3   294  HIS294      0.0745
    205  CG        79.3540   29.8840   60.6970 C.ar  294  HIS294      0.0817
    206  ND1       79.4650   28.5720   60.2880 N.ar  294  HIS294     -0.2268
    207  CD2       80.5670   30.4480   60.4850 C.ar  294  HIS294      0.1154
    208  CE1       80.6920   28.3520   59.8490 C.ar  294  HIS294      0.1986
    209  NE2       81.3800   29.4730   59.9590 N.ar  294  HIS294     -0.2212
    210  N         72.8610   30.4070   62.5140 N.3   296  MET296     -0.1245
    211  CA        72.5210   29.3640   63.4640 C.3   296  MET296      0.1570
    212  C         71.2460   29.7060   64.1960 C.2   296  MET296      0.2261
    213  O         71.2270   30.5860   65.0490 O.2   296  MET296     -0.2867
    214  CB        73.6490   29.1810   64.4670 C.3   296  MET296      0.0387
    215  CG        73.4390   28.0220   65.4070 C.3   296  MET296      0.0595
    216  SD        75.0270   27.3030   65.8130 S.3   296  MET296     -0.1393
    217  CE        75.6100   26.9170   64.1200 C.3   296  MET296      0.0692
    218  N         83.8790   33.3050   69.8370 N.3   310  ALA310     -0.1245
    219  CA        85.3050   33.5930   69.7180 C.3   310  ALA310      0.1562
    220  C         85.6620   34.7530   68.7820 C.2   310  ALA310      0.2260
    221  O         86.5530   35.5480   69.0730 O.2   310  ALA310     -0.2867
    222  CB        86.0400   32.3310   69.2940 C.3   310  ALA310      0.0290
@<TRIPOS>BOND
     1   208   209   ar
     2   208   206   ar
     3   209   207   ar
     4   206   205   ar
     5   207   205   ar
     6   201   202    1
     7   201   200    1
     8   201   204    1
     9   205   204    1
    10   202   203    2
    11   116   114    1
    12   115   114    1
    13   193   192    1
    14   210   211    1
    15   192   191   ar
    16   192   190   ar
    17   114   113    1
    18   191   189   ar
    19   190   188   ar
    20   211   212    1
    21   211   214    1
    22   189   187   ar
    23   188   187   ar
    24   187   186    1
    25     7     5    1
    26   217   216    1
    27   212   213    2
    28   113   110    1
    29   186   183    1
    30   214   215    1
    31   195   196    1
    32   195   198    1
    33   195   194    1
    34   196   197    2
    35   198   199    1
    36     6     5    1
    37   110   109    1
    38   110   111    1
    39     5     2    1
    40   215   216    1
    41    92    95    1
    42    92    91    1
    43    92    93    1
    44    95    96    1
    45    91    97    1
    46   183   184    1
    47   183   182    1
    48    86    84    1
    49    94    93    2
    50   112   111    2
    51     1     2    1
    52   184   185    2
    53    83    82    2
    54    93    98   am
    55     2     3    1
    56   111   117   am
    57    77    76    2
    58    84    81    1
    59    84    85    1
    60   182   178   am
    61   180   181    1
    62   180   177    1
    63   179   178    2
    64    97    96    1
    65    81    82    1
    66    81    80    1
    67   178   177    1
    68    16    14   am
    69    82    87   am
    70    98    99    1
    71    76    80   am
    72    76    75    1
    73   177   176    1
    74   117   118    1
    75     3     4    2
    76     3     8   am
    77   100    99    1
    78   100   101    2
    79    87    88    1
    80    78    75    1
    81    78    79    1
    82    14    13    1
    83    14    15    2
    84    99   102    1
    85     8     9    1
    86   176   173   am
    87    88    89    1
    88    75    74    1
    89    13    12    1
    90   220   221    2
    91   220   219    1
    92   118   119    1
    93   118   121    1
    94   222   219    1
    95   119   120    2
    96    28    27    1
    97    12     9    1
    98   173   174    2
    99   173   172    1
   100   102   103    1
   101     9    10    1
   102   219   218    1
   103    74    64   am
   104    89    90    2
   105    65    64    2
   106   104   103   ar
   107   104   106   ar
   108   175   172    1
   109    25    27   ar
   110    25    23   ar
   111   103   105   ar
   112   172   171    1
   113    27    26   ar
   114    11    10    2
   115    64    63    1
   116   106   108   ar
   117    10    17   am
   118   105   107   ar
   119   108   107   ar
   120    23    22   ar
   121    26    24   ar
   122   130   132   ar
   123   130   128   ar
   124   171   169   am
   125   143   142    2
   126   170   169    2
   127    66    63    1
   128    66    67    1
   129    17    18    1
   130    63    62    1
   131   132   131   ar
   132   122   123    1
   133   128   127   ar
   134    22    24   ar
   135    22    21    1
   136   169   168    1
   137   142   141    1
   138   144   145    1
   139   144   141    1
   140   158   157   ar
   141   146   145   ar
   142   146   148   ar
   143   155   154    2
   144    18    21    1
   145    18    19    1
   146   125   124    2
   147   156   157    1
   148   156   153    1
   149   131   129   ar
   150    67    68   ar
   151    67    69   ar
   152   145   147   ar
   153   148   150   ar
   154   157   159   ar
   155   141   140    1
   156   127   129   ar
   157   127   126    1
   158    68    70   ar
   159   123   124    1
   160   123   126    1
   161   168   167    1
   162   154   153    1
   163   154   160   am
   164   152   153    1
   165    69    71   ar
   166   163   162    2
   167    19    20    2
   168   167   162   am
   169   147   149   ar
   170   150   149   ar
   171   150   151    1
   172   162   161    1
   173    35    33    1
   174    70    72   ar
   175   161   160    1
   176   161   164    1
   177    34    33    1
   178    61    59   ar
   179    61    60   ar
   180    71    72   ar
   181    72    73    1
   182    33    30    1
   183    59    57   ar
   184    60    58   ar
   185    43    41   ar
   186   139   137    1
   187   164   166    1
   188   164   165    1
   189    42    41   ar
   190    41    40    1
   191    45    46    1
   192    45    44    1
   193    47    46    2
   194    30    29    1
   195    30    31    1
   196    57    56   ar
   197    57    55   ar
   198    40    37    1
   199    56    54   ar
   200    58    55   ar
   201    55    53   ar
   202   137   138    1
   203   137   134    1
   204    31    32    2
   205    37    38    1
   206    37    36    1
   207   133   134    1
   208   134   135    1
   209    38    39    2
   210    54    53   ar
   211    53    52    1
   212    51    50    2
   213   135   136    2
   214    52    49    1
   215    50    49    1
   216    49    48    1
