@<TRIPOS>MOLECULE
tmp/2g25B00.pdb
 202 190 0 0 0
SMALL
GASTEIGER

@<TRIPOS>ATOM
      1  N         31.5410  -26.1780   17.9820 N.3    51  HIS51      -0.1241
      2  CA        30.1150  -25.9250   18.1710 C.3    51  HIS51       0.1621
      3  C         29.8620  -25.4940   19.6050 C.2    51  HIS51       0.2264
      4  O         30.6620  -25.7990   20.4890 O.2    51  HIS51      -0.2867
      5  CB        29.3020  -27.1890   17.8840 C.3    51  HIS51       0.0745
      6  CG        29.6970  -27.8860   16.6260 C.ar   51  HIS51       0.0817
      7  ND1       28.9130  -27.8740   15.4930 N.ar   51  HIS51      -0.2268
      8  CD2       30.7970  -28.6060   16.3170 C.ar   51  HIS51       0.1154
      9  CE1       29.5170  -28.5560   14.5390 C.ar   51  HIS51       0.1986
     10  NE2       30.6610  -29.0120   15.0110 N.ar   51  HIS51      -0.2212
     11  N         24.9120  -26.9830   20.6510 N.3    54  SER54      -0.1217
     12  CA        24.5560  -28.3770   20.8760 C.3    54  SER54       0.1889
     13  C         24.8100  -28.7910   22.3230 C.2    54  SER54       0.2288
     14  O         23.9020  -29.2870   22.9870 O.2    54  SER54      -0.2866
     15  CB        25.3170  -29.2890   19.9060 C.3    54  SER54       0.2089
     16  OG        25.0130  -28.9420   18.5550 O.3    54  SER54      -0.2183
     17  N         28.2130  -37.8820   22.2360 N.3    85  GLN85      -0.1245
     18  CA        27.8800  -37.2550   20.9700 C.3    85  GLN85       0.1566
     19  C         29.1730  -36.5240   20.5700 C.2    85  GLN85       0.2260
     20  O         29.8000  -35.8570   21.3940 O.2    85  GLN85      -0.2867
     21  CB        26.7430  -36.2740   21.1740 C.3    85  GLN85       0.0367
     22  CG        25.9380  -35.9810   19.9380 C.3    85  GLN85       0.0905
     23  CD        24.9170  -34.8960   20.2020 C.2    85  GLN85       0.2608
     24  OE1       24.8930  -34.3110   21.2900 O.2    85  GLN85      -0.2717
     25  NE2       24.0670  -34.6200   19.2180 N.am   85  GLN85      -0.0878
     26  N         30.1830  -33.7390   18.5180 N.3    87  HIS87      -0.1241
     27  CA        30.3830  -32.3000   18.5910 C.3    87  HIS87       0.1621
     28  C         30.0480  -31.6070   19.9130 C.2    87  HIS87       0.2264
     29  O         29.9680  -30.3770   19.9610 O.2    87  HIS87      -0.2867
     30  CB        29.6710  -31.6100   17.4110 C.3    87  HIS87       0.0745
     31  CG        28.2150  -31.9380   17.2990 C.ar   87  HIS87       0.0817
     32  ND1       27.7510  -33.2260   17.1310 N.ar   87  HIS87      -0.2268
     33  CD2       27.1210  -31.1440   17.3270 C.ar   87  HIS87       0.1154
     34  CE1       26.4330  -33.2090   17.0600 C.ar   87  HIS87       0.1986
     35  NE2       26.0270  -31.9590   17.1770 N.ar   87  HIS87      -0.2212
     36  N         41.6160  -28.1470   18.8510 N.3   111  ARG111     -0.1245
     37  CA        41.6130  -28.2850   17.4040 C.3   111  ARG111      0.1563
     38  C         42.9180  -27.9050   16.7120 C.2   111  ARG111      0.2260
     39  O         42.9200  -27.5330   15.5390 O.2   111  ARG111     -0.2867
     40  CB        40.4430  -27.5000   16.7990 C.3   111  ARG111      0.0307
     41  CG        39.1020  -28.1690   17.0240 C.3   111  ARG111      0.0489
     42  CD        38.0310  -27.5980   16.1110 C.3   111  ARG111      0.2205
     43  NE        36.7810  -28.3370   16.2510 N.pl3 111  ARG111     -0.0865
     44  CZ        35.9110  -28.5500   15.2680 C.cat 111  ARG111      0.5346
     45  NH1       36.1540  -28.0770   14.0530 N.pl3 111  ARG111      0.1354
     46  NH2       34.7990  -29.2340   15.5050 N.pl3 111  ARG111      0.1354
     47  N         36.9020  -33.9740   17.7480 N.3   122  TYR122     -0.1241
     48  CA        35.9430  -34.9710   18.2070 C.3   122  TYR122      0.1605
     49  C         36.6080  -36.2170   18.7890 C.2   122  TYR122      0.2264
     50  O         37.8230  -36.3460   18.7720 O.2   122  TYR122     -0.2867
     51  CB        35.0490  -35.3720   17.0310 C.3   122  TYR122      0.0534
     52  CG        34.5160  -34.2000   16.2330 C.ar  122  TYR122     -0.0201
     53  CD1       33.6170  -33.2990   16.8020 C.ar  122  TYR122     -0.0009
     54  CD2       34.8910  -34.0040   14.9020 C.ar  122  TYR122     -0.0009
     55  CE1       33.0990  -32.2370   16.0660 C.ar  122  TYR122      0.0417
     56  CE2       34.3790  -32.9450   14.1570 C.ar  122  TYR122      0.0417
     57  CZ        33.4810  -32.0650   14.7470 C.ar  122  TYR122      0.1957
     58  OH        32.9570  -31.0240   14.0190 O.3   122  TYR122     -0.2866
     59  N         31.4890  -38.9690   15.6350 N.3   137  VAL137     -0.1231
     60  CA        31.0730  -37.8750   14.7460 C.3   137  VAL137      0.1692
     61  C         30.4740  -38.2750   13.4210 C.2   137  VAL137      0.2593
     62  O         29.7660  -37.4790   12.8150 O.2   137  VAL137     -0.2718
     63  CB        32.1710  -36.8460   14.3840 C.3   137  VAL137      0.0266
     64  CG1       31.8290  -35.5260   15.0260 C.3   137  VAL137      0.0020
     65  CG2       33.5280  -37.3350   14.7290 C.3   137  VAL137      0.0020
     66  N         30.7890  -39.4620   12.9220 N.am  138  SER138     -0.1938
     67  CA        30.1620  -39.8640   11.6810 C.3   138  SER138      0.2055
     68  C         28.8010  -40.3350   12.1630 C.2   138  SER138      0.2642
     69  O         28.6550  -41.4390   12.6770 O.2   138  SER138     -0.2714
     70  CB        30.9060  -41.0090   11.0070 C.3   138  SER138      0.2130
     71  OG        30.2800  -41.2820    9.7680 O.3   138  SER138     -0.2179
     72  N         27.8110  -39.4700   12.0160 N.am  139  MET139     -0.1976
     73  CA        26.4730  -39.7570   12.4800 C.3   139  MET139      0.1605
     74  C         25.9100  -41.1060   12.0200 C.2   139  MET139      0.2287
     75  O         26.1000  -41.5250   10.8730 O.2   139  MET139     -0.2864
     76  CB        25.5440  -38.6030   12.0740 C.3   139  MET139      0.0413
     77  CG        25.9310  -37.2260   12.6550 C.3   139  MET139      0.0598
     78  SD        26.1450  -37.2320   14.4450 S.3   139  MET139     -0.1393
     79  CE        27.4600  -35.9850   14.6650 C.3   139  MET139      0.0692
     80  N         21.8180  -37.4000   18.6500 N.3   174  GLY174     -0.1210
     81  CA        21.1050  -36.1700   18.3640 C.3   174  GLY174      0.1956
     82  C         19.8250  -36.6440   17.7160 C.2   174  GLY174      0.2612
     83  O         19.7510  -37.8060   17.3150 O.2   174  GLY174     -0.2717
     84  N         18.8120  -35.7870   17.6120 N.am  175  ASP175     -0.1959
     85  CA        17.5650  -36.2220   16.9890 C.3   175  ASP175      0.1840
     86  C         17.6330  -36.2100   15.4590 C.2   175  ASP175      0.2623
     87  O         16.9800  -37.0260   14.8000 O.2   175  ASP175     -0.2715
     88  CB        16.3730  -35.3880   17.4770 C.3   175  ASP175      0.1450
     89  CG        16.6510  -33.8970   17.5000 C.2   175  ASP175      0.3671
     90  OD1       17.7400  -33.4680   17.0700 O.co2 175  ASP175     -0.2456
     91  OD2       15.7550  -33.1510   17.9550 O.co2 175  ASP175     -0.2456
     92  N         18.4270  -35.3000   14.8950 N.am  176  GLY176     -0.1940
     93  CA        18.5660  -35.2460   13.4480 C.3   176  GLY176      0.2014
     94  C         19.3330  -36.4730   12.9740 C.2   176  GLY176      0.2638
     95  O         19.0860  -37.0070   11.8900 O.2   176  GLY176     -0.2714
     96  N         20.2600  -36.9240   13.8100 N.am  177  GLU177     -0.1977
     97  CA        21.0880  -38.0940   13.5150 C.3   177  GLU177      0.1602
     98  C         20.2490  -39.3660   13.3420 C.2   177  GLU177      0.2287
     99  O         20.6380  -40.2820   12.6170 O.2   177  GLU177     -0.2864
    100  CB        22.1180  -38.2840   14.6400 C.3   177  GLU177      0.0415
    101  CG        22.5980  -39.7150   14.8390 C.3   177  GLU177      0.1163
    102  CD        23.7880  -39.8220   15.7750 C.2   177  GLU177      0.3649
    103  OE1       23.8800  -39.0180   16.7340 O.co2 177  GLU177     -0.2457
    104  OE2       24.6320  -40.7190   15.5500 O.co2 177  GLU177     -0.2457
    105  N         19.5970  -41.2480    9.9310 N.3   180  GLU180     -0.1245
    106  CA        20.5330  -42.1360    9.2360 C.3   180  GLU180      0.1567
    107  C         19.9590  -43.5510    9.3410 C.2   180  GLU180      0.2260
    108  O         19.6060  -44.0060   10.4220 O.2   180  GLU180     -0.2867
    109  CB        21.9220  -42.0800    9.8820 C.3   180  GLU180      0.0388
    110  CG        22.5970  -40.7240    9.7790 C.3   180  GLU180      0.1160
    111  CD        23.3080  -40.5100    8.4480 C.2   180  GLU180      0.3649
    112  OE1       23.0100  -41.2380    7.4790 O.co2 180  GLU180     -0.2457
    113  OE2       24.1640  -39.6040    8.3720 O.co2 180  GLU180     -0.2457
    114  N         18.8550  -36.6640   22.1880 N.3   203  ASN203     -0.1240
    115  CA        18.6550  -35.2660   22.5300 C.3   203  ASN203      0.1653
    116  C         17.6790  -34.6170   21.5570 C.2   203  ASN203      0.2266
    117  O         18.0520  -34.2220   20.4510 O.2   203  ASN203     -0.2867
    118  CB        19.9730  -34.5050   22.4980 C.3   203  ASN203      0.1155
    119  CG        19.7930  -33.0590   22.8470 C.2   203  ASN203      0.2627
    120  OD1       18.7560  -32.6750   23.3830 O.2   203  ASN203     -0.2716
    121  ND2       20.7900  -32.2430   22.5490 N.am  203  ASN203     -0.0877
    122  N         16.1390  -31.6530   20.5780 N.3   205  ASN205     -0.1240
    123  CA        16.0580  -30.2040   20.6280 C.3   205  ASN205      0.1653
    124  C         15.2980  -29.7250   19.3990 C.2   205  ASN205      0.2266
    125  O         15.2390  -28.5330   19.1240 O.2   205  ASN205     -0.2867
    126  CB        17.4540  -29.5690   20.6940 C.3   205  ASN205      0.1155
    127  CG        18.4330  -30.2120   19.7380 C.2   205  ASN205      0.2627
    128  OD1       18.0460  -30.6650   18.6650 O.2   205  ASN205     -0.2716
    129  ND2       19.7110  -30.2490   20.1210 N.am  205  ASN205     -0.0877
    130  N         15.9270  -29.6490   16.3700 N.3   207  GLN207     -0.1231
    131  CA        16.7070  -29.1010   15.2690 C.3   207  GLN207      0.1698
    132  C         17.9570  -29.8910   14.9370 C.2   207  GLN207      0.2592
    133  O         18.5830  -30.4900   15.8130 O.2   207  GLN207     -0.2718
    134  CB        17.1620  -27.6640   15.5840 C.3   207  GLN207      0.0381
    135  CG        16.1120  -26.7420   16.1800 C.3   207  GLN207      0.0905
    136  CD        16.6870  -25.3940   16.5950 C.2   207  GLN207      0.2608
    137  OE1       16.3750  -24.8720   17.6610 O.2   207  GLN207     -0.2717
    138  NE2       17.5280  -24.8280   15.7470 N.am  207  GLN207     -0.0878
    139  N         18.3160  -29.8830   13.6580 N.am  208  ARG208     -0.1966
    140  CA        19.5460  -30.5160   13.2230 C.3   208  ARG208      0.1729
    141  C         20.4290  -29.3200   12.8360 C.2   208  ARG208      0.2616
    142  O         20.4230  -28.3120   13.5450 O.2   208  ARG208     -0.2715
    143  CB        19.3280  -31.4690   12.0410 C.3   208  ARG208      0.0348
    144  CG        18.1210  -31.2130   11.1710 C.3   208  ARG208      0.0492
    145  CD        18.0990  -32.2220   10.0430 C.3   208  ARG208      0.2205
    146  NE        16.8460  -32.2020    9.2980 N.pl3 208  ARG208     -0.0865
    147  CZ        16.5130  -31.2720    8.4080 C.cat 208  ARG208      0.5346
    148  NH1       17.3410  -30.2690    8.1400 N.pl3 208  ARG208      0.1354
    149  NH2       15.3510  -31.3540    7.7730 N.pl3 208  ARG208      0.1354
    150  N         21.1530  -29.4000   11.7230 N.am  209  LEU209     -0.1977
    151  CA        22.0450  -28.3140   11.3070 C.3   209  LEU209      0.1596
    152  C         21.3950  -27.1940   10.4780 C.2   209  LEU209      0.2287
    153  O         21.5680  -26.0170   10.7910 O.2   209  LEU209     -0.2864
    154  CB        23.2510  -28.9240   10.5630 C.3   209  LEU209      0.0297
    155  CG        24.1850  -28.2060    9.5740 C.3   209  LEU209      0.0022
    156  CD1       24.3080  -26.7220    9.8720 C.3   209  LEU209      0.0001
    157  CD2       25.5500  -28.8800    9.6530 C.3   209  LEU209      0.0001
    158  N         17.8060  -26.1080   21.6140 N.3   337  LYS337     -0.1245
    159  CA        19.1040  -25.9340   20.9720 C.3   337  LYS337      0.1561
    160  C         19.5010  -24.4690   21.1350 C.2   337  LYS337      0.2260
    161  O         18.6930  -23.5750   20.9030 O.2   337  LYS337     -0.2867
    162  CB        19.0210  -26.3040   19.4870 C.3   337  LYS337      0.0271
    163  CG        20.3740  -26.3070   18.7870 C.3   337  LYS337      0.0035
    164  CD        20.4020  -27.3190   17.6430 C.3   337  LYS337      0.0206
    165  CE        21.8150  -27.5910   17.1870 C.3   337  LYS337      0.1093
    166  NZ        21.8180  -28.4240   15.9650 N.3   337  LYS337     -0.1314
    167  N         23.1400  -24.1130   15.2020 N.3   352  HIS352     -0.1226
    168  CA        24.1850  -25.1220   15.0490 C.3   352  HIS352      0.1752
    169  C         25.5430  -24.5660   14.6340 C.2   352  HIS352      0.2595
    170  O         26.5780  -24.9560   15.1780 O.2   352  HIS352     -0.2718
    171  CB        23.7410  -26.1930   14.0510 C.3   352  HIS352      0.0759
    172  CG        24.5910  -27.4260   14.0780 C.ar  352  HIS352      0.0818
    173  ND1       24.3640  -28.4710   14.9480 N.ar  352  HIS352     -0.2268
    174  CD2       25.6750  -27.7770   13.3460 C.ar  352  HIS352      0.1154
    175  CE1       25.2700  -29.4130   14.7510 C.ar  352  HIS352      0.1986
    176  NE2       26.0780  -29.0160   13.7830 N.ar  352  HIS352     -0.2212
    177  N         25.5270  -23.6400   13.6810 N.am  353  GLN353     -0.1979
    178  CA        26.7400  -23.0220   13.1510 C.3   353  GLN353      0.1601
    179  C         27.3980  -21.9220   13.9910 C.2   353  GLN353      0.2287
    180  O         28.4920  -21.4680   13.6560 O.2   353  GLN353     -0.2864
    181  CB        26.4460  -22.4500   11.7700 C.3   353  GLN353      0.0394
    182  CG        25.7540  -23.4140   10.8360 C.3   353  GLN353      0.0908
    183  CD        26.6790  -24.5130   10.3920 C.2   353  GLN353      0.2608
    184  OE1       26.7320  -25.5810   11.0040 O.2   353  GLN353     -0.2717
    185  NE2       27.4260  -24.2580    9.3310 N.am  353  GLN353     -0.0878
    186  N         29.7220  -20.1240   16.0610 N.3   355  LYS355     -0.1245
    187  CA        31.0750  -20.3900   16.5420 C.3   355  LYS355      0.1561
    188  C         31.6500  -19.2000   17.2970 C.2   355  LYS355      0.2260
    189  O         32.7490  -19.2720   17.8460 O.2   355  LYS355     -0.2867
    190  CB        31.9960  -20.7300   15.3690 C.3   355  LYS355      0.0271
    191  CG        31.9780  -22.1900   14.9590 C.3   355  LYS355      0.0035
    192  CD        32.2550  -22.3340   13.4730 C.3   355  LYS355      0.0206
    193  CE        31.0780  -22.9880   12.7670 C.3   355  LYS355      0.1093
    194  NZ        31.1400  -24.4900   12.8280 N.3   355  LYS355     -0.1314
    195  N         32.6110  -46.7520    5.8950 N.3   554  ASP554     -0.1239
    196  CA        32.6630  -45.6940    6.8930 C.3   554  ASP554      0.1674
    197  C         32.9580  -46.3230    8.2560 C.2   554  ASP554      0.2266
    198  O         33.6750  -45.7510    9.0780 O.2   554  ASP554     -0.2867
    199  CB        31.3470  -44.9230    6.9150 C.3   554  ASP554      0.1410
    200  CG        31.5400  -43.4610    7.2540 C.2   554  ASP554      0.3668
    201  OD1       32.6130  -42.9080    6.9220 O.co2 554  ASP554     -0.2456
    202  OD2       30.6210  -42.8680    7.8560 O.co2 554  ASP554     -0.2456
@<TRIPOS>BOND
     1   195   196    1
     2   196   199    1
     3   196   197    1
     4   199   200    1
     5   201   200   ar
     6   200   202   ar
     7   112   111   ar
     8   149   147    1
     9   148   147    1
    10   197   198    2
    11   113   111   ar
    12   147   146    2
    13   111   110    1
    14   106   107    1
    15   106   109    1
    16   106   105    1
    17   146   145    1
    18   185   183   am
    19   107   108    2
    20   155   157    1
    21   155   156    1
    22   155   154    1
    23    71    70    1
    24   110   109    1
    25   145   144    1
    26   183   182    1
    27   183   184    2
    28   152   153    2
    29   152   151    1
    30   154   151    1
    31   182   181    1
    32    75    74    2
    33    70    67    1
    34   144   143    1
    35   151   150    1
    36    67    68    1
    37    67    66    1
    38   150   141   am
    39   181   178    1
    40    95    94    2
    41    72    68   am
    42    72    73    1
    43    74    73    1
    44   143   140    1
    45    76    73    1
    46    76    77    1
    47    68    69    2
    48    99    98    2
    49    77    78    1
    50   193   194    1
    51   193   192    1
    52    62    61    2
    53   141   140    1
    54   141   142    2
    55    66    61   am
    56    94    93    1
    57    94    96   am
    58   178   177    1
    59   178   179    1
    60   140   139    1
    61    98    97    1
    62   174   176   ar
    63   174   172   ar
    64    61    60    1
    65    93    92    1
    66   192   191    1
    67    97    96    1
    68    97   100    1
    69   180   179    2
    70   139   132   am
    71   177   169   am
    72   176   175   ar
    73    58    57    1
    74   171   172    1
    75   171   168    1
    76    45    44    1
    77   172   173   ar
    78    56    57   ar
    79    56    54   ar
    80    63    65    1
    81    63    60    1
    82    63    64    1
    83    78    79    1
    84     9    10   ar
    85     9     7   ar
    86   169   168    1
    87   169   170    2
    88   100   101    1
    89    60    59    1
    90    57    55   ar
    91   175   173   ar
    92    87    86    2
    93   101   102    1
    94    92    86   am
    95    54    52   ar
    96   132   131    1
    97   132   133    2
    98   191   190    1
    99    10     8   ar
   100   168   167    1
   101    44    46    1
   102    44    43    2
   103   131   134    1
   104   131   130    1
   105   190   187    1
   106    86    85    1
   107     7     6   ar
   108    39    38    2
   109   104   102   ar
   110   134   135    1
   111   138   136   am
   112   102   103   ar
   113   166   165    1
   114   186   187    1
   115    55    53   ar
   116    42    43    1
   117    42    41    1
   118   135   136    1
   119    52    53   ar
   120    52    51    1
   121     8     6   ar
   122   187   188    1
   123   136   137    2
   124     6     5    1
   125    38    37    1
   126    40    41    1
   127    40    37    1
   128    85    88    1
   129    85    84    1
   130    51    48    1
   131    34    32   ar
   132    34    35   ar
   133    90    89   ar
   134    32    31   ar
   135    35    33   ar
   136   165   164    1
   137   188   189    2
   138    31    33   ar
   139    31    30    1
   140    83    82    2
   141    37    36    1
   142    30    27    1
   143    88    89    1
   144    89    91   ar
   145    84    82   am
   146   164   163    1
   147    82    81    1
   148    47    48    1
   149     5     2    1
   150     1     2    1
   151     2     3    1
   152    48    49    1
   153    81    80    1
   154    26    27    1
   155    16    15    1
   156    27    28    1
   157   128   127    2
   158    50    49    2
   159   163   162    1
   160   125   124    2
   161    25    23   am
   162   124   123    1
   163   162   159    1
   164     3     4    2
   165   127   129   am
   166   127   126    1
   167    15    12    1
   168    28    29    2
   169    22    23    1
   170    22    21    1
   171    23    24    2
   172   117   116    2
   173    19    18    1
   174    19    20    2
   175   122   123    1
   176   123   126    1
   177    11    12    1
   178    12    13    1
   179   161   160    2
   180    18    21    1
   181    18    17    1
   182   159   160    1
   183   159   158    1
   184   116   115    1
   185   114   115    1
   186    13    14    2
   187   118   115    1
   188   118   119    1
   189   121   119   am
   190   119   120    2
