@<TRIPOS>MOLECULE
tmp/2g25B01.pdb
 107 100 0 0 0
SMALL
GASTEIGER

@<TRIPOS>ATOM
      1  N         27.8650  -63.3370    8.1010 N.3   465  ALA465     -0.1231
      2  CA        26.6720  -62.5900    7.7470 C.3   465  ALA465      0.1694
      3  C         25.8030  -63.4910    6.8690 C.2   465  ALA465      0.2592
      4  O         25.6420  -63.2350    5.6770 O.2   465  ALA465     -0.2718
      5  CB        27.0510  -61.3010    6.9950 C.3   465  ALA465      0.0304
      6  N         25.2710  -64.5580    7.4620 N.am  466  ASP466     -0.1960
      7  CA        24.4040  -65.4980    6.7560 C.3   466  ASP466      0.1840
      8  C         25.0340  -66.1050    5.4900 C.2   466  ASP466      0.2621
      9  O         24.3400  -66.3430    4.4960 O.2   466  ASP466     -0.2715
     10  CB        23.0940  -64.7960    6.3860 C.3   466  ASP466      0.1450
     11  CG        22.0050  -65.7640    5.9770 C.2   466  ASP466      0.3671
     12  OD1       21.8570  -66.8120    6.6510 O.co2 466  ASP466     -0.2456
     13  OD2       21.2990  -65.4730    4.9810 O.co2 466  ASP466     -0.2456
     14  N         26.3400  -66.3730    5.5270 N.am  467  GLU467     -0.1977
     15  CA        27.0150  -66.9430    4.3610 C.3   467  GLU467      0.1602
     16  C         27.9390  -68.1200    4.6980 C.2   467  GLU467      0.2287
     17  O         28.8270  -68.4750    3.9220 O.2   467  GLU467     -0.2864
     18  CB        27.7820  -65.8280    3.6400 C.3   467  GLU467      0.0415
     19  CG        26.8470  -64.7850    3.0170 C.3   467  GLU467      0.1163
     20  CD        27.5090  -63.4370    2.8000 C.2   467  GLU467      0.3649
     21  OE1       28.6120  -63.2150    3.3380 O.co2 467  GLU467     -0.2457
     22  OE2       26.9200  -62.5900    2.0900 O.co2 467  GLU467     -0.2457
     23  N         28.1300  -71.0700    2.1620 N.3   470  THR470     -0.1218
     24  CA        28.9040  -70.7330    0.9710 C.3   470  THR470      0.1862
     25  C         30.3760  -70.9840    1.2510 C.2   470  THR470      0.2287
     26  O         31.1190  -71.4260    0.3720 O.2   470  THR470     -0.2866
     27  CB        28.7550  -69.2410    0.6000 C.3   470  THR470      0.1770
     28  OG1       27.3780  -68.9390    0.3620 O.3   470  THR470     -0.2211
     29  CG2       29.5510  -68.9160   -0.6500 C.3   470  THR470      0.0375
     30  N         21.7180  -61.3960    7.3920 N.3   514  ILE514     -0.1245
     31  CA        22.0270  -60.5210    6.2600 C.3   514  ILE514      0.1561
     32  C         22.1850  -59.1070    6.8070 C.2   514  ILE514      0.2260
     33  O         21.2910  -58.2680    6.6650 O.2   514  ILE514     -0.2867
     34  CB        20.8870  -60.5680    5.2220 C.3   514  ILE514      0.0252
     35  CG1       20.4440  -62.0190    5.0180 C.3   514  ILE514      0.0019
     36  CG2       21.3480  -59.9650    3.8950 C.3   514  ILE514      0.0019
     37  CD1       19.5110  -62.2010    3.8310 C.3   514  ILE514      0.0001
     38  N         25.6930  -56.8120    7.0890 N.3   516  GLU516     -0.1245
     39  CA        27.1320  -56.5170    7.0730 C.3   516  GLU516      0.1567
     40  C         27.5570  -55.5060    8.1340 C.2   516  GLU516      0.2260
     41  O         28.5600  -55.7000    8.8180 O.2   516  GLU516     -0.2867
     42  CB        27.5650  -55.9920    5.6920 C.3   516  GLU516      0.0388
     43  CG        27.7150  -57.0670    4.6220 C.3   516  GLU516      0.1160
     44  CD        26.3760  -57.6110    4.1590 C.2   516  GLU516      0.3649
     45  OE1       25.3840  -56.8500    4.1880 O.co2 516  GLU516     -0.2457
     46  OE2       26.3110  -58.7980    3.7720 O.co2 516  GLU516     -0.2457
     47  N         31.1340  -62.1240    1.8140 N.3   544  TYR544     -0.1241
     48  CA        31.4440  -61.9280    0.3940 C.3   544  TYR544      0.1605
     49  C         32.1870  -60.6010    0.2980 C.2   544  TYR544      0.2264
     50  O         31.6240  -59.5510    0.6040 O.2   544  TYR544     -0.2867
     51  CB        30.1740  -61.8690   -0.4650 C.3   544  TYR544      0.0534
     52  CG        29.3080  -63.1220   -0.4460 C.ar  544  TYR544     -0.0201
     53  CD1       29.7570  -64.3100    0.1300 C.ar  544  TYR544     -0.0009
     54  CD2       28.0150  -63.0960   -0.9670 C.ar  544  TYR544     -0.0009
     55  CE1       28.9330  -65.4380    0.1920 C.ar  544  TYR544      0.0417
     56  CE2       27.1830  -64.2160   -0.9120 C.ar  544  TYR544      0.0417
     57  CZ        27.6450  -65.3760   -0.3310 C.ar  544  TYR544      0.1957
     58  OH        26.8040  -66.4620   -0.2510 O.3   544  TYR544     -0.2866
     59  N         30.9100  -57.0050   -0.4340 N.3   547  PHE547     -0.1241
     60  CA        30.0990  -56.3030    0.5440 C.3   547  PHE547      0.1605
     61  C         30.8650  -55.8950    1.7860 C.2   547  PHE547      0.2264
     62  O         30.2920  -55.7610    2.8670 O.2   547  PHE547     -0.2867
     63  CB        28.8870  -57.1580    0.9200 C.3   547  PHE547      0.0534
     64  CG        28.0280  -57.5200   -0.2540 C.ar  547  PHE547     -0.0203
     65  CD1       27.5350  -56.5380   -1.0950 C.ar  547  PHE547     -0.0042
     66  CD2       27.7460  -58.8470   -0.5470 C.ar  547  PHE547     -0.0042
     67  CE1       26.7790  -56.8710   -2.2130 C.ar  547  PHE547     -0.0003
     68  CE2       26.9900  -59.1890   -1.6610 C.ar  547  PHE547     -0.0003
     69  CZ        26.5070  -58.2030   -2.4970 C.ar  547  PHE547     -0.0000
     70  N         30.4270  -51.5220    1.1340 N.3   551  ARG551     -0.1245
     71  CA        29.1670  -51.4010    1.8610 C.3   551  ARG551      0.1563
     72  C         29.2550  -50.8680    3.2890 C.2   551  ARG551      0.2260
     73  O         28.3010  -50.2580    3.7780 O.2   551  ARG551     -0.2867
     74  CB        28.4640  -52.7690    1.8620 C.3   551  ARG551      0.0307
     75  CG        27.1780  -52.8480    2.6740 C.3   551  ARG551      0.0489
     76  CD        26.0660  -52.0650    1.9980 C.3   551  ARG551      0.2205
     77  NE        24.7470  -52.3540    2.5610 N.pl3 551  ARG551     -0.0865
     78  CZ        23.8210  -53.1010    1.9650 C.cat 551  ARG551      0.5346
     79  NH1       24.0590  -53.6460    0.7760 N.pl3 551  ARG551      0.1354
     80  NH2       22.6460  -53.2940    2.5580 N.pl3 551  ARG551      0.1354
     81  N         34.4270  -65.4760   -8.9390 N.3   578  LEU578     -0.1245
     82  CA        33.0450  -65.7010   -8.5160 C.3   578  LEU578      0.1561
     83  C         32.3050  -65.4350   -9.8270 C.2   578  LEU578      0.2260
     84  O         31.5030  -64.5110   -9.9520 O.2   578  LEU578     -0.2867
     85  CB        32.6620  -64.6970   -7.4330 C.3   578  LEU578      0.0270
     86  CG        31.2450  -64.7860   -6.8900 C.3   578  LEU578      0.0019
     87  CD1       31.0340  -66.1470   -6.2290 C.3   578  LEU578      0.0001
     88  CD2       31.0280  -63.6660   -5.9070 C.3   578  LEU578      0.0001
     89  N         28.0450  -65.1260  -10.5150 N.3   581  GLU581     -0.1245
     90  CA        27.2840  -64.0750   -9.8240 C.3   581  GLU581      0.1567
     91  C         27.0390  -62.7310  -10.5020 C.2   581  GLU581      0.2260
     92  O         26.0130  -62.0920  -10.2640 O.2   581  GLU581     -0.2867
     93  CB        27.8760  -63.8570   -8.4340 C.3   581  GLU581      0.0388
     94  CG        27.6950  -65.0700   -7.5440 C.3   581  GLU581      0.1160
     95  CD        26.2480  -65.5350   -7.5010 C.2   581  GLU581      0.3649
     96  OE1       25.3860  -64.7020   -7.1750 O.co2 581  GLU581     -0.2457
     97  OE2       25.9680  -66.7170   -7.7920 O.co2 581  GLU581     -0.2457
     98  N         28.3050  -58.6710   -7.5810 N.3   585  HIS585     -0.1241
     99  CA        28.9870  -59.6380   -6.7250 C.3   585  HIS585      0.1621
    100  C         30.4860  -59.7690   -7.0020 C.2   585  HIS585      0.2264
    101  O         31.2850  -59.9150   -6.0760 O.2   585  HIS585     -0.2867
    102  CB        28.3550  -61.0190   -6.8900 C.3   585  HIS585      0.0745
    103  CG        27.0840  -61.2110   -6.1260 C.ar  585  HIS585      0.0817
    104  ND1       25.8460  -60.9340   -6.6620 N.ar  585  HIS585     -0.2268
    105  CD2       26.8530  -61.7440   -4.9020 C.ar  585  HIS585      0.1154
    106  CE1       24.9080  -61.2940   -5.8030 C.ar  585  HIS585      0.1986
    107  NE2       25.4920  -61.7870   -4.7270 N.ar  585  HIS585     -0.2212
@<TRIPOS>BOND
     1    89    90    1
     2    91    92    2
     3    91    90    1
     4    84    83    2
     5    83    82    1
     6    90    93    1
     7    81    82    1
     8    82    85    1
     9    93    94    1
    10    97    95   ar
    11    98    99    1
    12    94    95    1
    13    95    96   ar
    14    85    86    1
    15   100    99    1
    16   100   101    2
    17    86    87    1
    18    86    88    1
    19   102    99    1
    20   102   103    1
    21   104   103   ar
    22   104   106   ar
    23   103   105   ar
    24   106   107   ar
    25   105   107   ar
    26    69    67   ar
    27    69    68   ar
    28    67    65   ar
    29    68    66   ar
    30    65    64   ar
    31    54    56   ar
    32    54    52   ar
    33    56    57   ar
    34    29    27    1
    35    66    64   ar
    36    51    52    1
    37    51    48    1
    38    52    53   ar
    39    59    60    1
    40    57    58    1
    41    57    55   ar
    42    64    63    1
    43    53    55   ar
    44    49    48    1
    45    49    50    2
    46    28    27    1
    47    26    25    2
    48    48    47    1
    49    60    63    1
    50    60    61    1
    51    27    24    1
    52    79    78    1
    53    24    25    1
    54    24    23    1
    55    70    71    1
    56    61    62    2
    57    71    74    1
    58    71    72    1
    59    74    75    1
    60    78    80    1
    61    78    77    2
    62    76    77    1
    63    76    75    1
    64    22    20   ar
    65    20    19    1
    66    20    21   ar
    67    19    18    1
    68    72    73    2
    69    18    15    1
    70    46    44   ar
    71    37    35    1
    72    36    34    1
    73    17    16    2
    74    44    45   ar
    75    44    43    1
    76    15    16    1
    77    15    14    1
    78     9     8    2
    79    43    42    1
    80    13    11   ar
    81    35    34    1
    82    34    31    1
    83     8    14   am
    84     8     7    1
    85     4     3    2
    86    42    39    1
    87    11    10    1
    88    11    12   ar
    89    31    32    1
    90    31    30    1
    91    10     7    1
    92    33    32    2
    93     7     6    1
    94     3     6   am
    95     3     2    1
    96     5     2    1
    97    39    38    1
    98    39    40    1
    99     2     1    1
   100    40    41    2
