@<TRIPOS>MOLECULE
tmp/2g2fA00.pdb
 154 152 0 0 0
SMALL
GASTEIGER

@<TRIPOS>ATOM
      1  N         13.5870   25.2630    9.8130 N.3    21  GLN21      -0.1231
      2  CA        14.1280   26.4420   10.4640 C.3    21  GLN21       0.1698
      3  C         15.6310   26.5310   10.1760 C.2    21  GLN21       0.2592
      4  O         16.3690   27.2130   10.8910 O.2    21  GLN21      -0.2718
      5  CB        13.8680   26.3670   11.9730 C.3    21  GLN21       0.0381
      6  CG        12.4500   26.7630   12.3740 C.3    21  GLN21       0.0905
      7  CD        12.0610   26.2850   13.7670 C.2    21  GLN21       0.2608
      8  OE1       11.7820   25.1030   13.9710 O.2    21  GLN21      -0.2717
      9  NE2       12.0470   27.2050   14.7330 N.am   21  GLN21      -0.0878
     10  N         16.0790   25.8270    9.1330 N.am   22  TYR22      -0.1976
     11  CA        17.4890   25.8180    8.7380 C.3    22  TYR22       0.1639
     12  C         17.6850   25.5690    7.2400 C.2    22  TYR22       0.2290
     13  O         18.8090   25.3600    6.7820 O.2    22  TYR22      -0.2864
     14  CB        18.2660   24.7600    9.5370 C.3    22  TYR22       0.0560
     15  CG        18.0790   24.8800   11.0320 C.ar   22  TYR22      -0.0198
     16  CD1       16.9700   24.3100   11.6620 C.ar   22  TYR22      -0.0009
     17  CD2       18.9650   25.6280   11.8060 C.ar   22  TYR22      -0.0009
     18  CE1       16.7430   24.4870   13.0240 C.ar   22  TYR22       0.0417
     19  CE2       18.7470   25.8120   13.1730 C.ar   22  TYR22       0.0417
     20  CZ        17.6320   25.2400   13.7740 C.ar   22  TYR22       0.1957
     21  OH        17.3930   25.4290   15.1170 O.3    22  TYR22      -0.2866
     22  N         20.9300   17.2160   17.4530 N.3   132  ASP132     -0.1239
     23  CA        19.5650   16.8100   17.7990 C.3   132  ASP132      0.1674
     24  C         19.2350   15.3440   17.5090 C.2   132  ASP132      0.2266
     25  O         18.5860   15.0270   16.5040 O.2   132  ASP132     -0.2867
     26  CB        18.5480   17.7080   17.0820 C.3   132  ASP132      0.1410
     27  CG        17.1210   17.5170   17.5950 C.2   132  ASP132      0.3668
     28  OD1       16.9400   16.9020   18.6720 O.co2 132  ASP132     -0.2456
     29  OD2       16.1770   17.9970   16.9280 O.co2 132  ASP132     -0.2456
     30  N         12.8110   12.1630   14.7810 N.3   136  ARG136     -0.1245
     31  CA        12.4940   13.0340   13.6460 C.3   136  ARG136      0.1563
     32  C         13.7170   13.2730   12.7630 C.2   136  ARG136      0.2260
     33  O         13.5810   13.7450   11.6320 O.2   136  ARG136     -0.2867
     34  CB        11.9500   14.3730   14.1340 C.3   136  ARG136      0.0307
     35  CG        12.9110   15.0550   15.0620 C.3   136  ARG136      0.0489
     36  CD        12.3900   16.3480   15.6400 C.3   136  ARG136      0.2205
     37  NE        13.3270   16.7970   16.6590 N.pl3 136  ARG136     -0.0865
     38  CZ        13.1370   16.6880   17.9720 C.cat 136  ARG136      0.5346
     39  NH1       12.0180   16.1570   18.4580 N.pl3 136  ARG136      0.1354
     40  NH2       14.0990   17.0690   18.8040 N.pl3 136  ARG136      0.1354
     41  N         19.8060   32.2250   25.7520 N.3   167  GLY167     -0.1210
     42  CA        18.4980   32.4530   25.1610 C.3   167  GLY167      0.1956
     43  C         18.1670   31.5030   24.0200 C.2   167  GLY167      0.2612
     44  O         17.0620   31.5570   23.4720 O.2   167  GLY167     -0.2717
     45  N         19.1150   30.6420   23.6530 N.am  168  ALA168     -0.1965
     46  CA        18.8960   29.6850   22.5760 C.3   168  ALA168      0.1728
     47  C         17.8390   28.6270   22.9530 C.2   168  ALA168      0.2616
     48  O         17.6480   28.2910   24.1270 O.2   168  ALA168     -0.2715
     49  CB        20.2060   29.0150   22.2090 C.3   168  ALA168      0.0334
     50  N         17.1540   28.1090   21.9400 N.am  169  LYS169     -0.1963
     51  CA        16.1080   27.1150   22.1470 C.3   169  LYS169      0.1728
     52  C         16.6100   25.6840   21.9550 C.2   169  LYS169      0.2616
     53  O         17.4650   25.4220   21.1150 O.2   169  LYS169     -0.2715
     54  CB        14.9560   27.3880   21.1800 C.3   169  LYS169      0.0311
     55  CG        14.4480   28.8190   21.2330 C.3   169  LYS169      0.0038
     56  CD        13.3040   29.0530   20.2600 C.3   169  LYS169      0.0206
     57  CE        12.7310   30.4510   20.4340 C.3   169  LYS169      0.1093
     58  NZ        11.6530   30.7360   19.4410 N.3   169  LYS169     -0.1314
     59  N         16.0720   24.7610   22.7420 N.am  170  PHE170     -0.1960
     60  CA        16.4550   23.3550   22.6550 C.3   170  PHE170      0.1756
     61  C         15.2010   22.5000   22.6170 C.2   170  PHE170      0.2461
     62  O         14.1360   22.9120   23.0930 O.2   170  PHE170     -0.2730
     63  CB        17.2450   22.8990   23.8940 C.3   170  PHE170      0.0574
     64  CG        18.4390   23.7470   24.2270 C.ar  170  PHE170     -0.0200
     65  CD1       18.6490   24.1770   25.5290 C.ar  170  PHE170     -0.0042
     66  CD2       19.3630   24.0930   23.2590 C.ar  170  PHE170     -0.0042
     67  CE1       19.7610   24.9400   25.8630 C.ar  170  PHE170     -0.0003
     68  CE2       20.4800   24.8570   23.5850 C.ar  170  PHE170     -0.0003
     69  CZ        20.6760   25.2790   24.8900 C.ar  170  PHE170     -0.0000
     70  N         15.3000   21.3000   22.0270 N.am  171  PRO171     -0.2716
     71  CA        14.1090   20.4450   22.0050 C.3   171  PRO171      0.1536
     72  C         14.0540   19.8900   23.4390 C.2   171  PRO171      0.2598
     73  O         14.6110   18.8410   23.7320 O.2   171  PRO171     -0.2715
     74  CB        14.4650   19.3910   20.9590 C.3   171  PRO171      0.0310
     75  CG        15.9700   19.3200   21.0420 C.3   171  PRO171      0.0237
     76  CD        16.3880   20.7390   21.2060 C.3   171  PRO171      0.0939
     77  N         13.4090   20.6410   24.3240 N.am  172  ILE172     -0.1964
     78  CA        13.3040   20.3210   25.7500 C.3   172  ILE172      0.1727
     79  C         13.2100   18.8640   26.2210 C.2   172  ILE172      0.2616
     80  O         14.0360   18.4160   27.0110 O.2   172  ILE172     -0.2715
     81  CB        12.1320   21.0910   26.3690 C.3   172  ILE172      0.0290
     82  CG1       12.2610   22.5890   26.0350 C.3   172  ILE172      0.0022
     83  CG2       12.0820   20.8410   27.8770 C.3   172  ILE172      0.0023
     84  CD1       13.5430   23.2560   26.5320 C.3   172  ILE172      0.0001
     85  N         12.2120   18.1290   25.7460 N.am  173  LYS173     -0.1963
     86  CA        12.0080   16.7400   26.1540 C.3   173  LYS173      0.1728
     87  C         13.0920   15.7470   25.7330 C.2   173  LYS173      0.2616
     88  O         13.0420   14.5780   26.1130 O.2   173  LYS173     -0.2715
     89  CB        10.6330   16.2530   25.6700 C.3   173  LYS173      0.0311
     90  CG         9.4990   17.1590   26.0980 C.3   173  LYS173      0.0038
     91  CD         8.1580   16.4550   26.1930 C.3   173  LYS173      0.0206
     92  CE         7.0900   17.4550   26.6370 C.3   173  LYS173      0.1093
     93  NZ         5.7780   16.8420   26.9870 N.3   173  LYS173     -0.1314
     94  N         14.0740   16.1990   24.9670 N.am  174  TRP174     -0.1974
     95  CA        15.1530   15.3110   24.5370 C.3   174  TRP174      0.1640
     96  C         16.4950   15.7860   25.0800 C.2   174  TRP174      0.2290
     97  O         17.5130   15.1270   24.8920 O.2   174  TRP174     -0.2864
     98  CB        15.2580   15.2850   23.0070 C.3   174  TRP174      0.0576
     99  CG        14.1530   14.5690   22.2930 C.ar  174  TRP174      0.0006
    100  CD1       14.1970   13.3170   21.7660 C.ar  174  TRP174      0.0946
    101  CD2       12.8560   15.0810   22.0050 C.ar  174  TRP174      0.0152
    102  NE1       13.0100   13.0140   21.1620 N.ar  174  TRP174     -0.2442
    103  CE2       12.1630   14.0790   21.2930 C.ar  174  TRP174      0.0810
    104  CE3       12.2070   16.2920   22.2790 C.ar  174  TRP174      0.0012
    105  CZ2       10.8440   14.2450   20.8470 C.ar  174  TRP174      0.0191
    106  CZ3       10.8880   16.4580   21.8340 C.ar  174  TRP174      0.0001
    107  CH2       10.2230   15.4370   21.1270 C.ar  174  TRP174      0.0015
    108  N         19.9200   21.9060   29.9780 N.3   180  LEU180     -0.1231
    109  CA        18.7830   22.7280   30.3490 C.3   180  LEU180      0.1693
    110  C         19.2070   23.7650   31.3730 C.2   180  LEU180      0.2591
    111  O         18.8580   24.9420   31.2580 O.2   180  LEU180     -0.2718
    112  CB        17.6480   21.8670   30.9100 C.3   180  LEU180      0.0284
    113  CG        17.0200   20.8350   29.9710 C.3   180  LEU180      0.0019
    114  CD1       15.8750   20.1080   30.6740 C.3   180  LEU180      0.0001
    115  CD2       16.5100   21.5300   28.7290 C.3   180  LEU180      0.0001
    116  N         19.9850   23.3300   32.3580 N.am  181  ALA181     -0.1980
    117  CA        20.4270   24.2220   33.4210 C.3   181  ALA181      0.1597
    118  C         21.5780   25.1480   33.0540 C.2   181  ALA181      0.2287
    119  O         21.5590   26.3230   33.4290 O.2   181  ALA181     -0.2864
    120  CB        20.8020   23.4050   34.6680 C.3   181  ALA181      0.0319
    121  N         23.2610   25.1560   29.6030 N.3   183  ASN183     -0.1240
    122  CA        23.5730   25.2550   28.1760 C.3   183  ASN183      0.1653
    123  C         24.8680   24.5160   27.8040 C.2   183  ASN183      0.2266
    124  O         25.6240   24.9680   26.9480 O.2   183  ASN183     -0.2867
    125  CB        23.6780   26.7320   27.7650 C.3   183  ASN183      0.1155
    126  CG        22.3110   27.3900   27.5530 C.2   183  ASN183      0.2627
    127  OD1       21.3290   27.0480   28.2090 O.2   183  ASN183     -0.2716
    128  ND2       22.2540   28.3510   26.6420 N.am  183  ASN183     -0.0877
    129  N          6.3040   21.7050   28.8830 N.3   214  LEU214     -0.1231
    130  CA         7.7400   21.9660   28.7820 C.3   214  LEU214      0.1693
    131  C          8.3560   22.6430   29.9980 C.2   214  LEU214      0.2592
    132  O          9.4760   22.3320   30.3900 O.2   214  LEU214     -0.2718
    133  CB         8.0500   22.8100   27.5470 C.3   214  LEU214      0.0284
    134  CG         7.9260   22.1510   26.1730 C.3   214  LEU214      0.0019
    135  CD1        8.4530   23.1130   25.1090 C.3   214  LEU214      0.0001
    136  CD2        8.7210   20.8430   26.1440 C.3   214  LEU214      0.0001
    137  N          7.6300   23.5750   30.5940 N.am  215  SER215     -0.1952
    138  CA         8.1410   24.2930   31.7520 C.3   215  SER215      0.1924
    139  C          8.3410   23.4320   32.9930 C.2   215  SER215      0.2314
    140  O          9.1590   23.7600   33.8500 O.2   215  SER215     -0.2863
    141  CB         7.2140   25.4660   32.0800 C.3   215  SER215      0.2116
    142  OG         5.8480   25.0780   31.9920 O.3   215  SER215     -0.2180
    143  N         12.2090   20.0440   33.5740 N.3   218  TYR218     -0.1241
    144  CA        13.4280   20.1240   34.3720 C.3   218  TYR218      0.1605
    145  C         13.1820   19.8830   35.8720 C.2   218  TYR218      0.2264
    146  O         13.8830   19.0840   36.4870 O.2   218  TYR218     -0.2867
    147  CB        14.1200   21.4750   34.1780 C.3   218  TYR218      0.0534
    148  CG        15.4260   21.5700   34.9370 C.ar  218  TYR218     -0.0201
    149  CD1       16.5790   20.9420   34.4690 C.ar  218  TYR218     -0.0009
    150  CD2       15.4920   22.2340   36.1620 C.ar  218  TYR218     -0.0009
    151  CE1       17.7590   20.9730   35.2020 C.ar  218  TYR218      0.0417
    152  CE2       16.6610   22.2650   36.8970 C.ar  218  TYR218      0.0417
    153  CZ        17.7890   21.6340   36.4130 C.ar  218  TYR218      0.1957
    154  OH        18.9420   21.6650   37.1610 O.3   218  TYR218     -0.2866
@<TRIPOS>BOND
     1    13    12    2
     2    12    11    1
     3    11    10    1
     4    11    14    1
     5    10     3   am
     6    14    15    1
     7     1     2    1
     8     3     2    1
     9     3     4    2
    10     2     5    1
    11    15    16   ar
    12    15    17   ar
    13    33    32    2
    14    16    18   ar
    15    17    19   ar
    16     5     6    1
    17     6     7    1
    18    32    31    1
    19    18    20   ar
    20    19    20   ar
    21    31    34    1
    22    31    30    1
    23     7     8    2
    24     7     9   am
    25    20    21    1
    26    34    35    1
    27    35    36    1
    28    36    37    1
    29    25    24    2
    30    37    38    2
    31    29    27   ar
    32    26    27    1
    33    26    23    1
    34    22    23    1
    35    24    23    1
    36    27    28   ar
    37    38    39    1
    38    38    40    1
    39    58    57    1
    40    56    57    1
    41    56    55    1
    42   105   107   ar
    43   105   103   ar
    44    74    75    1
    45    74    71    1
    46    75    76    1
    47    53    52    2
    48   107   106   ar
    49   102   103   ar
    50   102   100   ar
    51    54    55    1
    52    54    51    1
    53    76    70    1
    54   103   101   ar
    55   100    99   ar
    56   106   104   ar
    57    50    51    1
    58    50    47   am
    59    52    51    1
    60    52    59   am
    61   101   104   ar
    62   101    99   ar
    63    71    70    1
    64    71    72    1
    65    70    61   am
    66    49    46    1
    67    99    98    1
    68    46    47    1
    69    46    45    1
    70    61    60    1
    71    61    62    2
    72    60    59    1
    73    60    63    1
    74    47    48    2
    75    98    95    1
    76    66    68   ar
    77    66    64   ar
    78    72    73    2
    79    72    77   am
    80    44    43    2
    81    68    69   ar
    82    45    43   am
    83    63    64    1
    84    43    42    1
    85    64    65   ar
    86    77    78    1
    87    95    94    1
    88    95    96    1
    89    69    67   ar
    90    97    96    2
    91    94    87   am
    92   135   134    1
    93    42    41    1
    94    65    67   ar
    95    89    90    1
    96    89    86    1
    97    87    88    2
    98    87    86    1
    99    85    86    1
   100    85    79   am
   101    78    79    1
   102    78    81    1
   103    82    81    1
   104    82    84    1
   105    90    91    1
   106   136   134    1
   107   134   133    1
   108    91    92    1
   109    79    80    2
   110    81    83    1
   111    92    93    1
   112   128   126   am
   113   124   123    2
   114   133   130    1
   115   126   125    1
   116   126   127    2
   117   125   122    1
   118   123   122    1
   119   122   121    1
   120   115   113    1
   121   130   129    1
   122   130   131    1
   123   113   114    1
   124   113   112    1
   125   108   109    1
   126   131   132    2
   127   131   137   am
   128   109   112    1
   129   109   110    1
   130   137   138    1
   131   111   110    2
   132   110   116   am
   133   138   141    1
   134   138   139    1
   135   142   141    1
   136   116   117    1
   137   139   140    2
   138   118   117    1
   139   118   119    2
   140   117   120    1
   141   143   144    1
   142   147   144    1
   143   147   148    1
   144   144   145    1
   145   149   148   ar
   146   149   151   ar
   147   148   150   ar
   148   151   153   ar
   149   145   146    2
   150   150   152   ar
   151   153   152   ar
   152   153   154    1
