@<TRIPOS>MOLECULE
tmp/2g2fA01.pdb
 173 165 0 0 0
SMALL
GASTEIGER

@<TRIPOS>ATOM
      1  N         10.0940   18.6630   -0.0960 N.3    17  LEU17      -0.1231
      2  CA         9.6640   17.7250    0.9370 C.3    17  LEU17       0.1693
      3  C          9.0570   18.4500    2.1310 C.2    17  LEU17       0.2593
      4  O          7.8660   18.3300    2.4130 O.2    17  LEU17      -0.2718
      5  CB        10.8480   16.8790    1.4080 C.3    17  LEU17       0.0284
      6  CG        11.5330   15.9940    0.3690 C.3    17  LEU17       0.0019
      7  CD1       12.7180   15.3070    1.0070 C.3    17  LEU17       0.0001
      8  CD2       10.5590   14.9840   -0.1800 C.3    17  LEU17       0.0001
      9  N          9.8960   19.1940    2.8360 N.am   18  GLY18      -0.1942
     10  CA         9.4390   19.9380    3.9890 C.3    18  GLY18       0.2014
     11  C         10.3490   21.1310    4.2100 C.2    18  GLY18       0.2639
     12  O         11.5250   21.1140    3.8180 O.2    18  GLY18      -0.2714
     13  N          9.8020   22.1810    4.8140 N.am   19  GLY19      -0.1939
     14  CA        10.6010   23.3570    5.0880 C.3    19  GLY19       0.2014
     15  C         11.4070   23.0960    6.3420 C.2    19  GLY19       0.2639
     16  O         11.3030   22.0230    6.9460 O.2    19  GLY19      -0.2714
     17  N         12.2130   24.0680    6.7440 N.am   20  GLY20      -0.1939
     18  CA        13.0050   23.8770    7.9370 C.3    20  GLY20       0.2014
     19  C         13.5630   25.1630    8.4900 C.2    20  GLY20       0.2639
     20  O         13.9580   26.0540    7.7400 O.2    20  GLY20      -0.2714
     21  N         13.5870   25.2630    9.8130 N.am   21  GLN21      -0.1963
     22  CA        14.1280   26.4420   10.4640 C.3    21  GLN21       0.1733
     23  C         15.6310   26.5310   10.1760 C.2    21  GLN21       0.2616
     24  O         16.3690   27.2130   10.8910 O.2    21  GLN21      -0.2715
     25  CB        13.8680   26.3670   11.9730 C.3    21  GLN21       0.0408
     26  CG        12.4500   26.7630   12.3740 C.3    21  GLN21       0.0908
     27  CD        12.0610   26.2850   13.7670 C.2    21  GLN21       0.2608
     28  OE1       11.7820   25.1030   13.9710 O.2    21  GLN21      -0.2717
     29  NE2       12.0470   27.2050   14.7330 N.am   21  GLN21      -0.0878
     30  N         16.0790   25.8270    9.1330 N.am   22  TYR22      -0.1960
     31  CA        17.4890   25.8180    8.7380 C.3    22  TYR22       0.1771
     32  C         17.6850   25.5690    7.2400 C.2    22  TYR22       0.2620
     33  O         18.8090   25.3600    6.7820 O.2    22  TYR22      -0.2715
     34  CB        18.2660   24.7600    9.5370 C.3    22  TYR22       0.0574
     35  CG        18.0790   24.8800   11.0320 C.ar   22  TYR22      -0.0198
     36  CD1       16.9700   24.3100   11.6620 C.ar   22  TYR22      -0.0009
     37  CD2       18.9650   25.6280   11.8060 C.ar   22  TYR22      -0.0009
     38  CE1       16.7430   24.4870   13.0240 C.ar   22  TYR22       0.0417
     39  CE2       18.7470   25.8120   13.1730 C.ar   22  TYR22       0.0417
     40  CZ        17.6320   25.2400   13.7740 C.ar   22  TYR22       0.1957
     41  OH        17.3930   25.4290   15.1170 O.3    22  TYR22      -0.2866
     42  N         16.5920   25.5920    6.4810 N.am   23  GLY23      -0.1954
     43  CA        16.6880   25.3700    5.0470 C.3    23  GLY23       0.1869
     44  C         15.7830   24.2740    4.5040 C.2    23  GLY23       0.2309
     45  O         15.8360   23.1230    4.9470 O.2    23  GLY23      -0.2863
     46  N         14.2380   21.3610    2.2490 N.3    25  VAL25      -0.1245
     47  CA        14.8980   20.2240    1.6230 C.3    25  VAL25       0.1561
     48  C         14.0560   19.7410    0.4380 C.2    25  VAL25       0.2260
     49  O         12.8300   19.7300    0.4890 O.2    25  VAL25      -0.2867
     50  CB        15.1180   19.0780    2.6270 C.3    25  VAL25       0.0252
     51  CG1       13.8060   18.6630    3.2100 C.3    25  VAL25       0.0019
     52  CG2       15.7880   17.8910    1.9340 C.3    25  VAL25       0.0019
     53  N         18.6070   14.0250   -2.3970 N.3    38  ALA38      -0.1245
     54  CA        17.9670   14.9670   -1.4900 C.3    38  ALA38       0.1562
     55  C         18.7930   16.2450   -1.5790 C.2    38  ALA38       0.2260
     56  O         20.0200   16.2000   -1.5100 O.2    38  ALA38      -0.2867
     57  CB        17.9680   14.4190   -0.0630 C.3    38  ALA38       0.0290
     58  N         19.5650   19.9210    0.0520 N.3    40  LYS40      -0.1245
     59  CA        19.4520   20.8150    1.1990 C.3    40  LYS40       0.1561
     60  C         19.7490   22.2190    0.6800 C.2    40  LYS40       0.2260
     61  O         20.8080   22.4550    0.1020 O.2    40  LYS40      -0.2867
     62  CB        20.4850   20.4330    2.2690 C.3    40  LYS40       0.0271
     63  CG        20.4240   21.2570    3.5510 C.3    40  LYS40       0.0035
     64  CD        19.0890   21.0780    4.2450 C.3    40  LYS40       0.0206
     65  CE        19.1200   21.6390    5.6470 C.3    40  LYS40       0.1093
     66  NZ        17.8110   21.4070    6.3050 N.3    40  LYS40      -0.1314
     67  N         23.5940    9.2500    6.8900 N.3    68  VAL68      -0.1245
     68  CA        23.2050    9.6540    5.5460 C.3    68  VAL68       0.1561
     69  C         24.4660   10.1070    4.8320 C.2    68  VAL68       0.2260
     70  O         25.2670   10.8580    5.3860 O.2    68  VAL68      -0.2867
     71  CB        22.1880   10.7900    5.5730 C.3    68  VAL68       0.0252
     72  CG1       21.9600   11.3110    4.1740 C.3    68  VAL68       0.0019
     73  CG2       20.8900   10.2930    6.1630 C.3    68  VAL68       0.0019
     74  N         22.4690   14.9060   -0.8140 N.3    84  THR84      -0.1203
     75  CA        22.6490   13.6360   -0.0990 C.3    84  THR84       0.1994
     76  C         21.7780   12.5440   -0.6880 C.2    84  THR84       0.2618
     77  O         20.8800   12.8130   -1.4930 O.2    84  THR84      -0.2717
     78  CB        22.2640   13.7440    1.3920 C.3    84  THR84       0.1784
     79  OG1       20.8660   14.0300    1.4910 O.3    84  THR84      -0.2211
     80  CG2       23.0420   14.8440    2.0800 C.3    84  THR84       0.0376
     81  N         22.0470   11.3090   -0.2840 N.am   85  GLU85      -0.1965
     82  CA        21.2560   10.1850   -0.7590 C.3    85  GLU85       0.1733
     83  C         19.8260   10.4200   -0.2910 C.2    85  GLU85       0.2616
     84  O         19.5920   11.1420    0.6760 O.2    85  GLU85      -0.2715
     85  CB        21.7770    8.8610   -0.1980 C.3    85  GLU85       0.0429
     86  CG        22.0040    8.8610    1.2990 C.3    85  GLU85       0.1163
     87  CD        22.4000    7.4860    1.8310 C.2    85  GLU85       0.3649
     88  OE1       23.1680    7.4220    2.8200 O.co2  85  GLU85      -0.2457
     89  OE2       21.9320    6.4700    1.2670 O.co2  85  GLU85      -0.2457
     90  N         18.8750    9.8250   -1.0020 N.am   86  PHE86      -0.1960
     91  CA        17.4720    9.9630   -0.6740 C.3    86  PHE86       0.1771
     92  C         16.9670    8.7280    0.0610 C.2    86  PHE86       0.2619
     93  O         17.0940    7.6060   -0.4360 O.2    86  PHE86      -0.2715
     94  CB        16.6530   10.1570   -1.9460 C.3    86  PHE86       0.0574
     95  CG        15.2240   10.5310   -1.6850 C.ar   86  PHE86      -0.0200
     96  CD1       14.8710   11.8580   -1.4610 C.ar   86  PHE86      -0.0042
     97  CD2       14.2340    9.5530   -1.6280 C.ar   86  PHE86      -0.0042
     98  CE1       13.5530   12.2120   -1.1820 C.ar   86  PHE86      -0.0003
     99  CE2       12.9170    9.8970   -1.3510 C.ar   86  PHE86      -0.0003
    100  CZ        12.5770   11.2380   -1.1270 C.ar   86  PHE86      -0.0000
    101  N         16.4140    8.9410    1.2530 N.am   87  MET87      -0.1977
    102  CA        15.8540    7.8670    2.0650 C.3    87  MET87       0.1605
    103  C         14.3920    7.8000    1.6610 C.2    87  MET87       0.2287
    104  O         13.6370    8.7330    1.9370 O.2    87  MET87      -0.2864
    105  CB        15.9770    8.2170    3.5380 C.3    87  MET87       0.0413
    106  CG        17.4080    8.4080    3.9780 C.3    87  MET87       0.0598
    107  SD        18.4030    6.8990    3.8100 S.3    87  MET87      -0.1393
    108  CE        19.5600    7.4550    2.7580 C.3    87  MET87       0.0692
    109  N         11.2360    8.2870    4.4280 N.3    90  GLY90      -0.1210
    110  CA        11.1750    9.4280    5.3190 C.3    90  GLY90       0.1956
    111  C         11.7180    9.1990    6.7040 C.2    90  GLY90       0.2611
    112  O         12.4910    8.2560    6.9360 O.2    90  GLY90      -0.2717
    113  N         11.3160   10.0590    7.6310 N.am   91  ASN91      -0.1974
    114  CA        11.7920    9.9590    8.9970 C.3    91  ASN91       0.1688
    115  C         11.1620    8.8510    9.8350 C.2    91  ASN91       0.2292
    116  O          9.9990    8.4810    9.6650 O.2    91  ASN91      -0.2864
    117  CB        11.6310   11.3010    9.6980 C.3    91  ASN91       0.1181
    118  CG        10.1960   11.7310    9.8190 C.2    91  ASN91       0.2629
    119  OD1        9.5290   11.4370   10.8150 O.2    91  ASN91      -0.2716
    120  ND2        9.7010   12.4290    8.8000 N.am   91  ASN91      -0.0877
    121  N         20.9300   17.2160   17.4530 N.3   132  ASP132     -0.1239
    122  CA        19.5650   16.8100   17.7990 C.3   132  ASP132      0.1674
    123  C         19.2350   15.3440   17.5090 C.2   132  ASP132      0.2266
    124  O         18.5860   15.0270   16.5040 O.2   132  ASP132     -0.2867
    125  CB        18.5480   17.7080   17.0820 C.3   132  ASP132      0.1410
    126  CG        17.1210   17.5170   17.5950 C.2   132  ASP132      0.3668
    127  OD1       16.9400   16.9020   18.6720 O.co2 132  ASP132     -0.2456
    128  OD2       16.1770   17.9970   16.9280 O.co2 132  ASP132     -0.2456
    129  N         12.8110   12.1630   14.7810 N.3   136  ARG136     -0.1231
    130  CA        12.4940   13.0340   13.6460 C.3   136  ARG136      0.1694
    131  C         13.7170   13.2730   12.7630 C.2   136  ARG136      0.2592
    132  O         13.5810   13.7450   11.6320 O.2   136  ARG136     -0.2718
    133  CB        11.9500   14.3730   14.1340 C.3   136  ARG136      0.0321
    134  CG        12.9110   15.0550   15.0620 C.3   136  ARG136      0.0489
    135  CD        12.3900   16.3480   15.6400 C.3   136  ARG136      0.2205
    136  NE        13.3270   16.7970   16.6590 N.pl3 136  ARG136     -0.0865
    137  CZ        13.1370   16.6880   17.9720 C.cat 136  ARG136      0.5346
    138  NH1       12.0180   16.1570   18.4580 N.pl3 136  ARG136      0.1354
    139  NH2       14.0990   17.0690   18.8040 N.pl3 136  ARG136      0.1354
    140  N         14.9030   12.9480   13.2760 N.am  137  ASN137     -0.1974
    141  CA        16.1320   13.1210   12.5170 C.3   137  ASN137      0.1688
    142  C         16.8020   11.8010   12.1590 C.2   137  ASN137      0.2292
    143  O         18.0190   11.7250   12.0000 O.2   137  ASN137     -0.2864
    144  CB        17.1150   14.0250   13.2610 C.3   137  ASN137      0.1181
    145  CG        16.5830   15.4340   13.4320 C.2   137  ASN137      0.2629
    146  OD1       16.0370   16.0110   12.4930 O.2   137  ASN137     -0.2716
    147  ND2       16.7350   15.9970   14.6340 N.am  137  ASN137     -0.0877
    148  N         16.3460    8.7670    9.3100 N.3   139  LEU139     -0.1245
    149  CA        15.6570    8.4940    8.0530 C.3   139  LEU139      0.1561
    150  C         15.5790    7.0040    7.8370 C.2   139  LEU139      0.2260
    151  O         16.4270    6.2540    8.3230 O.2   139  LEU139     -0.2867
    152  CB        16.3930    9.1310    6.8730 C.3   139  LEU139      0.0270
    153  CG        16.5190   10.6540    6.7750 C.3   139  LEU139      0.0019
    154  CD1       15.1520   11.3130    6.7420 C.3   139  LEU139      0.0001
    155  CD2       17.3090   11.1520    7.9550 C.3   139  LEU139      0.0001
    156  N         23.4290   16.2630    8.5850 N.3   151  PHE151     -0.1241
    157  CA        23.4760   17.7260    8.5960 C.3   151  PHE151      0.1605
    158  C         23.5360   18.3360   10.0020 C.2   151  PHE151      0.2264
    159  O         23.7680   19.5350   10.1540 O.2   151  PHE151     -0.2867
    160  CB        22.2710   18.3080    7.8540 C.3   151  PHE151      0.0534
    161  CG        22.2960   19.8130    7.7350 C.ar  151  PHE151     -0.0203
    162  CD1       23.2380   20.4470    6.9280 C.ar  151  PHE151     -0.0042
    163  CD2       21.3890   20.6020    8.4460 C.ar  151  PHE151     -0.0042
    164  CE1       23.2750   21.8440    6.8320 C.ar  151  PHE151     -0.0003
    165  CE2       21.4220   22.0060    8.3550 C.ar  151  PHE151     -0.0003
    166  CZ        22.3660   22.6210    7.5480 C.ar  151  PHE151     -0.0000
    167  N         15.3000   21.3000   22.0270 N.3   171  PRO171     -0.2116
    168  CA        14.1090   20.4450   22.0050 C.3   171  PRO171      0.1372
    169  C         14.0540   19.8900   23.4390 C.2   171  PRO171      0.2244
    170  O         14.6110   18.8410   23.7320 O.2   171  PRO171     -0.2868
    171  CB        14.4650   19.3910   20.9590 C.3   171  PRO171      0.0268
    172  CG        15.9700   19.3200   21.0420 C.3   171  PRO171      0.0207
    173  CD        16.3880   20.7390   21.2060 C.3   171  PRO171      0.0892
@<TRIPOS>BOND
     1    53    54    1
     2    94    95    1
     3    94    91    1
     4    95    97   ar
     5    95    96   ar
     6    97    99   ar
     7    55    56    2
     8    55    54    1
     9    77    76    2
    10    54    57    1
    11    96    98   ar
    12    99   100   ar
    13    98   100   ar
    14    90    91    1
    15    90    83   am
    16    74    75    1
    17    82    83    1
    18    82    81    1
    19    82    85    1
    20    76    81   am
    21    76    75    1
    22    91    92    1
    23    93    92    2
    24    83    84    2
    25    85    86    1
    26     8     6    1
    27    75    78    1
    28     1     2    1
    29    58    59    1
    30    92   101   am
    31    61    60    2
    32     6     7    1
    33     6     5    1
    34    48    49    2
    35    48    47    1
    36    60    59    1
    37     2     5    1
    38     2     3    1
    39    59    62    1
    40   101   102    1
    41    89    87   ar
    42    86    87    1
    43    78    79    1
    44    78    80    1
    45    47    46    1
    46    47    50    1
    47   103   104    2
    48   103   102    1
    49    87    88   ar
    50    52    50    1
    51   102   105    1
    52     3     4    2
    53     3     9   am
    54    62    63    1
    55    50    51    1
    56   108   107    1
    57     9    10    1
    58   105   106    1
    59    63    64    1
    60   107   106    1
    61    12    11    2
    62    10    11    1
    63    72    71    1
    64    11    13   am
    65    64    65    1
    66   109   110    1
    67    44    45    2
    68    44    43    1
    69    13    14    1
    70    69    70    2
    71    69    68    1
    72    43    42    1
    73    14    15    1
    74   110   111    1
    75    68    71    1
    76    68    67    1
    77    71    73    1
    78    65    66    1
    79    15    17   am
    80    15    16    2
    81    42    32   am
    82   111   112    2
    83   111   113   am
    84   154   153    1
    85    17    18    1
    86   153   152    1
    87   153   155    1
    88    33    32    2
    89   164   162   ar
    90   164   166   ar
    91   152   149    1
    92   162   161   ar
    93    32    31    1
    94   166   165   ar
    95   113   114    1
    96   161   160    1
    97   161   163   ar
    98    20    19    2
    99   150   149    1
   100   150   151    2
   101   160   157    1
   102    18    19    1
   103   149   148    1
   104   165   163   ar
   105    19    21   am
   106   156   157    1
   107   157   158    1
   108    31    30    1
   109    31    34    1
   110   120   118   am
   111   114   117    1
   112   114   115    1
   113    30    23   am
   114    34    35    1
   115   116   115    2
   116   117   118    1
   117    21    22    1
   118   118   119    2
   119   158   159    2
   120    23    22    1
   121    23    24    2
   122    22    25    1
   123    35    36   ar
   124    35    37   ar
   125   132   131    2
   126    36    38   ar
   127    37    39   ar
   128    25    26    1
   129   143   142    2
   130   142   141    1
   131    26    27    1
   132   146   145    2
   133   141   144    1
   134   141   140    1
   135   131   140   am
   136   131   130    1
   137    38    40   ar
   138    39    40   ar
   139   144   145    1
   140   145   147   am
   141   130   133    1
   142   130   129    1
   143    27    28    2
   144    27    29   am
   145    40    41    1
   146   133   134    1
   147   134   135    1
   148   135   136    1
   149   124   123    2
   150   136   137    2
   151   128   126   ar
   152   125   126    1
   153   125   122    1
   154   121   122    1
   155   123   122    1
   156   126   127   ar
   157   137   138    1
   158   137   139    1
   159   171   172    1
   160   171   168    1
   161   172   173    1
   162   173   167    1
   163   168   167    1
   164   168   169    1
   165   169   170    2
