@<TRIPOS>MOLECULE
tmp/2g2fB00.pdb
 122 112 0 0 0
SMALL
GASTEIGER

@<TRIPOS>ATOM
      1  N         33.1200  122.3030   34.1650 N.3    15  LEU15      -0.1245
      2  CA        31.8870  121.5320   34.0510 C.3    15  LEU15       0.1561
      3  C         30.7080  122.3140   34.6260 C.2    15  LEU15       0.2260
      4  O         30.1210  123.1610   33.9540 O.2    15  LEU15      -0.2867
      5  CB        32.0300  120.2020   34.7950 C.3    15  LEU15       0.0270
      6  CG        33.2250  119.3110   34.4370 C.3    15  LEU15       0.0019
      7  CD1       33.3080  118.1600   35.4270 C.3    15  LEU15       0.0001
      8  CD2       33.0930  118.7960   33.0100 C.3    15  LEU15       0.0001
      9  N         28.7520  128.6950   42.5330 N.3    16  GLY16      -0.1225
     10  CA        29.5380  129.3340   41.4920 C.3    16  GLY16       0.1811
     11  C         29.9170  128.3910   40.3630 C.2    16  GLY16       0.2280
     12  O         29.2360  127.3910   40.1240 O.2    16  GLY16      -0.2866
     13  N         32.0660  125.5380   38.4010 N.3    18  VAL18      -0.1245
     14  CA        32.7410  124.3040   38.8000 C.3    18  VAL18       0.1561
     15  C         33.7660  123.7820   37.7920 C.2    18  VAL18       0.2260
     16  O         33.4760  123.6550   36.5990 O.2    18  VAL18      -0.2867
     17  CB        31.7250  123.1750   39.0640 C.3    18  VAL18       0.0252
     18  CG1       32.4380  121.9520   39.6190 C.3    18  VAL18       0.0019
     19  CG2       30.6590  123.6540   40.0290 C.3    18  VAL18       0.0019
     20  N         36.7410  117.3000   41.9820 N.3    31  ALA31      -0.1245
     21  CA        35.8450  118.3190   41.4500 C.3    31  ALA31       0.1562
     22  C         35.9980  119.5350   42.3570 C.2    31  ALA31       0.2260
     23  O         35.9920  119.4050   43.5820 O.2    31  ALA31      -0.2867
     24  CB        34.4110  117.8260   41.4710 C.3    31  ALA31       0.0290
     25  N         34.3890  123.2680   43.1330 N.3    33  LYS33      -0.1245
     26  CA        33.3970  124.3190   42.9550 C.3    33  LYS33       0.1561
     27  C         34.0800  125.6100   43.3890 C.2    33  LYS33       0.2260
     28  O         34.8780  125.6140   44.3290 O.2    33  LYS33      -0.2867
     29  CB        32.1640  124.0510   43.8240 C.3    33  LYS33       0.0271
     30  CG        30.9730  124.9560   43.5200 C.3    33  LYS33       0.0035
     31  CD        29.7770  124.6320   44.4090 C.3    33  LYS33       0.0206
     32  CE        28.5790  125.5150   44.0730 C.3    33  LYS33       0.1093
     33  NZ        27.4280  125.3090   45.0030 N.3    33  LYS33      -0.1314
     34  N         27.9280  112.6940   48.3730 N.3    61  VAL61      -0.1245
     35  CA        29.2360  113.1300   47.8740 C.3    61  VAL61       0.1561
     36  C         30.1420  113.5430   49.0360 C.2    61  VAL61       0.2260
     37  O         29.7370  114.3150   49.9040 O.2    61  VAL61      -0.2867
     38  CB        29.1110  114.3110   46.8890 C.3    61  VAL61       0.0252
     39  CG1       30.4840  114.7940   46.4950 C.3    61  VAL61       0.0019
     40  CG2       28.3620  113.8770   45.6500 C.3    61  VAL61       0.0019
     41  N         35.5970  118.2120   46.4140 N.3    77  THR77      -0.1203
     42  CA        34.7710  117.0320   46.6480 C.3    77  THR77       0.1994
     43  C         35.1770  115.9570   45.6480 C.2    77  THR77       0.2618
     44  O         35.5710  116.2670   44.5230 O.2    77  THR77      -0.2717
     45  CB        33.2780  117.3430   46.4440 C.3    77  THR77       0.1784
     46  OG1       33.0200  117.5500   45.0520 O.3    77  THR77      -0.2211
     47  CG2       32.8840  118.5970   47.2100 C.3    77  THR77       0.0376
     48  N         35.0860  114.6960   46.0550 N.am   78  GLU78      -0.1965
     49  CA        35.4510  113.5890   45.1760 C.3    78  GLU78       0.1733
     50  C         34.8430  113.7970   43.8010 C.2    78  GLU78       0.2616
     51  O         33.8600  114.5200   43.6550 O.2    78  GLU78      -0.2715
     52  CB        34.9480  112.2690   45.7520 C.3    78  GLU78       0.0429
     53  CG        33.4830  112.3090   46.1210 C.3    78  GLU78       0.1163
     54  CD        32.9700  110.9860   46.6380 C.2    78  GLU78       0.3649
     55  OE1       31.8760  110.9670   47.2380 O.co2  78  GLU78      -0.2457
     56  OE2       33.6560  109.9650   46.4340 O.co2  78  GLU78      -0.2457
     57  N         35.4290  113.1660   42.7920 N.am   79  PHE79      -0.1960
     58  CA        34.9240  113.2930   41.4320 C.3    79  PHE79       0.1771
     59  C         34.0930  112.0660   41.0770 C.2    79  PHE79       0.2619
     60  O         34.5440  110.9340   41.2340 O.2    79  PHE79      -0.2715
     61  CB        36.0880  113.4300   40.4480 C.3    79  PHE79       0.0574
     62  CG        35.6610  113.6090   39.0170 C.ar   79  PHE79      -0.0200
     63  CD1       35.0730  114.7960   38.5950 C.ar   79  PHE79      -0.0042
     64  CD2       35.8410  112.5870   38.0930 C.ar   79  PHE79      -0.0042
     65  CE1       34.6660  114.9620   37.2670 C.ar   79  PHE79      -0.0003
     66  CE2       35.4390  112.7460   36.7680 C.ar   79  PHE79      -0.0003
     67  CZ        34.8490  113.9390   36.3570 C.ar   79  PHE79      -0.0000
     68  N         32.8710  112.2960   40.6130 N.am   80  MET80      -0.1977
     69  CA        31.9870  111.2070   40.2340 C.3    80  MET80       0.1605
     70  C         32.1200  111.0430   38.7270 C.2    80  MET80       0.2287
     71  O         31.5000  111.7590   37.9450 O.2    80  MET80      -0.2864
     72  CB        30.5550  111.5400   40.6580 C.3    80  MET80       0.0413
     73  CG        30.3710  111.5900   42.1850 C.3    80  MET80       0.0598
     74  SD        30.0040  109.9910   42.9610 S.3    80  MET80      -0.1393
     75  CE        31.5670  109.1790   42.8640 C.3    80  MET80       0.0692
     76  N         29.2290  111.7960   35.9210 N.3    83  GLY83      -0.1210
     77  CA        28.3670  112.9650   35.8900 C.3    83  GLY83       0.1956
     78  C         27.0400  112.8200   36.6250 C.2    83  GLY83       0.2611
     79  O         26.8560  111.8800   37.4110 O.2    83  GLY83      -0.2717
     80  N         26.1070  113.7430   36.3650 N.am   84  ASN84      -0.1974
     81  CA        24.8100  113.7160   37.0310 C.3    84  ASN84       0.1688
     82  C         23.8990  112.6030   36.5310 C.2    84  ASN84       0.2292
     83  O         24.0170  112.1490   35.3940 O.2    84  ASN84      -0.2864
     84  CB        24.1200  115.0860   36.9160 C.3    84  ASN84       0.1181
     85  CG        23.5060  115.3340   35.5530 C.2    84  ASN84       0.2629
     86  OD1       22.4800  114.7500   35.2020 O.2    84  ASN84      -0.2716
     87  ND2       24.1250  116.2140   34.7810 N.am   84  ASN84      -0.0877
     88  N         21.4380  113.2040   32.9980 N.3    87  ASP87      -0.1239
     89  CA        22.0290  112.9310   31.6960 C.3    87  ASP87       0.1674
     90  C         22.3130  111.4330   31.5720 C.2    87  ASP87       0.2266
     91  O         21.9790  110.8010   30.5630 O.2    87  ASP87      -0.2867
     92  CB        23.3280  113.7240   31.5140 C.3    87  ASP87       0.1410
     93  CG        23.0940  115.2230   31.4550 C.2    87  ASP87       0.3668
     94  OD1       22.0900  115.6440   30.8330 O.co2  87  ASP87      -0.2456
     95  OD2       23.9160  115.9790   32.0160 O.co2  87  ASP87      -0.2456
     96  N         18.8790  115.6670   38.7290 N.3   129  ARG129     -0.1231
     97  CA        19.9710  116.5590   38.3360 C.3   129  ARG129      0.1694
     98  C         20.9860  116.7710   39.4590 C.2   129  ARG129      0.2592
     99  O         22.1240  117.1570   39.2030 O.2   129  ARG129     -0.2718
    100  CB        19.4270  117.9200   37.8800 C.3   129  ARG129      0.0321
    101  CG        18.6350  118.6610   38.9450 C.3   129  ARG129      0.0489
    102  CD        18.3110  120.1050   38.5480 C.3   129  ARG129      0.2205
    103  NE        17.3720  120.7190   39.4900 N.pl3 129  ARG129     -0.0865
    104  CZ        16.0640  120.4650   39.5240 C.cat 129  ARG129      0.5346
    105  NH1       15.5210  119.6170   38.6600 N.pl3 129  ARG129      0.1354
    106  NH2       15.2990  121.0370   40.4440 N.pl3 129  ARG129      0.1354
    107  N         20.5750  116.5110   40.6970 N.am  130  ASN130     -0.1974
    108  CA        21.4590  116.6710   41.8510 C.3   130  ASN130      0.1688
    109  C         21.8980  115.3410   42.4440 C.2   130  ASN130      0.2292
    110  O         22.0360  115.2020   43.6600 O.2   130  ASN130     -0.2864
    111  CB        20.7690  117.5000   42.9240 C.3   130  ASN130      0.1181
    112  CG        20.4460  118.8800   42.4430 C.2   130  ASN130      0.2629
    113  OD1       21.3470  119.6580   42.1170 O.2   130  ASN130     -0.2716
    114  ND2       19.1550  119.1970   42.3700 N.am  130  ASN130     -0.0877
    115  N         24.8130  112.2560   41.5980 N.3   132  LEU132     -0.1245
    116  CA        25.9270  111.8210   40.7640 C.3   132  LEU132      0.1561
    117  C         26.0130  110.3070   40.6390 C.2   132  LEU132      0.2260
    118  O         25.5970  109.5720   41.5340 O.2   132  LEU132     -0.2867
    119  CB        27.2600  112.3720   41.2980 C.3   132  LEU132      0.0270
    120  CG        27.5820  113.8670   41.1410 C.3   132  LEU132      0.0019
    121  CD1       26.8590  114.4210   39.9360 C.3   132  LEU132      0.0001
    122  CD2       27.1800  114.6280   42.3780 C.3   132  LEU132      0.0001
@<TRIPOS>BOND
     1    91    90    2
     2    94    93   ar
     3    93    92    1
     4    93    95   ar
     5    92    89    1
     6    90    89    1
     7    89    88    1
     8     8     6    1
     9     4     3    2
    10     2     1    1
    11     2     3    1
    12     2     5    1
    13     6     5    1
    14     6     7    1
    15    87    85   am
    16    86    85    2
    17    83    82    2
    18    85    84    1
    19    77    76    1
    20    77    78    1
    21    67    66   ar
    22    67    65   ar
    23    80    78   am
    24    80    81    1
    25    82    81    1
    26    16    15    2
    27    78    79    2
    28    66    64   ar
    29    84    81    1
    30    65    63   ar
    31    15    14    1
    32   100    97    1
    33   100   101    1
    34    71    70    2
    35    64    62   ar
    36    97    96    1
    37    97    98    1
    38    13    14    1
    39   102   101    1
    40   102   103    1
    41    63    62   ar
    42   105   104    1
    43    70    69    1
    44    14    17    1
    45    62    61    1
    46    17    18    1
    47    17    19    1
    48    99    98    2
    49    98   107   am
    50   103   104    2
    51   104   106    1
    52   121   120    1
    53    12    11    2
    54    69    68    1
    55    69    72    1
    56    11    10    1
    57    61    58    1
    58    68    59   am
    59   117   116    1
    60   117   118    2
    61    72    73    1
    62   107   108    1
    63   116   119    1
    64   116   115    1
    65    59    60    2
    66    59    58    1
    67   120   119    1
    68   120   122    1
    69    58    57    1
    70    21    24    1
    71    21    20    1
    72    21    22    1
    73    10     9    1
    74   108   109    1
    75   108   111    1
    76   113   112    2
    77    73    74    1
    78    22    23    2
    79   114   112   am
    80   112   111    1
    81   109   110    2
    82    57    50   am
    83    75    74    1
    84    26    25    1
    85    26    27    1
    86    26    29    1
    87    27    28    2
    88    30    29    1
    89    30    31    1
    90    51    50    2
    91    50    49    1
    92    32    31    1
    93    32    33    1
    94    44    43    2
    95    46    45    1
    96    49    52    1
    97    49    48    1
    98    43    48   am
    99    43    42    1
   100    40    38    1
   101    52    53    1
   102    53    54    1
   103    41    42    1
   104    56    54   ar
   105    45    42    1
   106    45    47    1
   107    39    38    1
   108    54    55   ar
   109    38    35    1
   110    35    34    1
   111    35    36    1
   112    36    37    2
