@<TRIPOS>MOLECULE
tmp/2g2iB00.pdb
 133 132 0 0 0
SMALL
GASTEIGER

@<TRIPOS>ATOM
      1  N         10.9560  -17.8190   20.1930 N.3   128  ASP128     -0.1239
      2  CA         9.7030  -18.4730   20.5620 C.3   128  ASP128      0.1674
      3  C          9.1310  -19.2500   19.3740 C.2   128  ASP128      0.2266
      4  O          8.4800  -18.6830   18.5100 O.2   128  ASP128     -0.2867
      5  CB         8.6890  -17.4300   21.0470 C.3   128  ASP128      0.1410
      6  CG         7.7330  -17.9880   22.0810 C.2   128  ASP128      0.3668
      7  OD1        7.8540  -19.1900   22.4030 O.co2 128  ASP128     -0.2456
      8  OD2        6.8680  -17.2280   22.5710 O.co2 128  ASP128     -0.2456
      9  N          1.6830  -22.8200   19.1900 N.3   132  ARG132     -0.1245
     10  CA         0.8320  -21.6900   19.5640 C.3   132  ARG132      0.1563
     11  C          1.2470  -20.4190   18.8230 C.2   132  ARG132      0.2260
     12  O          0.5420  -19.4120   18.8500 O.2   132  ARG132     -0.2867
     13  CB         0.9140  -21.4380   21.0700 C.3   132  ARG132      0.0307
     14  CG         2.3350  -21.3830   21.5820 C.3   132  ARG132      0.0489
     15  CD         2.4550  -20.6320   22.8910 C.3   132  ARG132      0.2205
     16  NE         3.8570  -20.4730   23.2680 N.pl3 132  ARG132     -0.0865
     17  CZ         4.6040  -21.4500   23.7610 C.cat 132  ARG132      0.5346
     18  NH1        4.0860  -22.6570   23.9530 N.pl3 132  ARG132      0.1354
     19  NH2        5.8770  -21.2270   24.0360 N.pl3 132  ARG132      0.1354
     20  N         17.3150  -12.9610   34.2290 N.3   163  GLY163     -0.1210
     21  CA        16.1980  -12.5370   35.0490 C.3   163  GLY163      0.1956
     22  C         14.8830  -12.7840   34.3400 C.2   163  GLY163      0.2612
     23  O         13.8040  -12.6200   34.9160 O.2   163  GLY163     -0.2717
     24  N         14.9690  -13.1910   33.0800 N.am  164  ALA164     -0.1965
     25  CA        13.7730  -13.4480   32.2960 C.3   164  ALA164      0.1728
     26  C         13.2900  -14.8850   32.4350 C.2   164  ALA164      0.2616
     27  O         14.0710  -15.8040   32.6950 O.2   164  ALA164     -0.2715
     28  CB        14.0290  -13.1210   30.8400 C.3   164  ALA164      0.0334
     29  N         11.9860  -15.0570   32.2500 N.am  165  LYS165     -0.1963
     30  CA        11.3340  -16.3550   32.3490 C.3   165  LYS165      0.1728
     31  C         11.1170  -16.9170   30.9440 C.2   165  LYS165      0.2616
     32  O         10.6290  -16.2100   30.0650 O.2   165  LYS165     -0.2715
     33  CB         9.9930  -16.1770   33.0560 C.3   165  LYS165      0.0311
     34  CG        10.0720  -15.2350   34.2470 C.3   165  LYS165      0.0038
     35  CD         8.8410  -14.3440   34.3370 C.3   165  LYS165      0.0206
     36  CE         9.0430  -13.2270   35.3560 C.3   165  LYS165      0.1093
     37  NZ         7.9080  -12.2570   35.3790 N.3   165  LYS165     -0.1314
     38  N         11.4800  -18.1820   30.7320 N.am  166  PHE166     -0.1960
     39  CA        11.3160  -18.8150   29.4200 C.3   166  PHE166      0.1756
     40  C         10.2540  -19.9220   29.4070 C.2   166  PHE166      0.2461
     41  O          9.8930  -20.4610   30.4510 O.2   166  PHE166     -0.2730
     42  CB        12.6180  -19.4840   28.9360 C.3   166  PHE166      0.0574
     43  CG        13.8830  -18.7900   29.3480 C.ar  166  PHE166     -0.0200
     44  CD1       14.5800  -19.2080   30.4760 C.ar  166  PHE166     -0.0042
     45  CD2       14.4240  -17.7770   28.5630 C.ar  166  PHE166     -0.0042
     46  CE1       15.8030  -18.6320   30.8120 C.ar  166  PHE166     -0.0003
     47  CE2       15.6420  -17.1950   28.8900 C.ar  166  PHE166     -0.0003
     48  CZ        16.3350  -17.6250   30.0150 C.ar  166  PHE166     -0.0000
     49  N          9.7350  -20.2640   28.2110 N.am  167  PRO167     -0.2716
     50  CA         8.7340  -21.3240   28.0760 C.3   167  PRO167      0.1536
     51  C          9.5370  -22.6310   28.0290 C.2   167  PRO167      0.2598
     52  O          9.8450  -23.1740   26.9640 O.2   167  PRO167     -0.2715
     53  CB         8.0520  -20.9810   26.7600 C.3   167  PRO167      0.0310
     54  CG         9.1350  -20.3880   25.9880 C.3   167  PRO167      0.0237
     55  CD         9.7950  -19.4710   26.9730 C.3   167  PRO167      0.0939
     56  N          9.8810  -23.0810   29.2330 N.am  168  ILE168     -0.1964
     57  CA        10.6760  -24.2650   29.5240 C.3   168  ILE168      0.1727
     58  C         10.6380  -25.4450   28.5800 C.2   168  ILE168      0.2616
     59  O         11.6780  -25.8550   28.0580 O.2   168  ILE168     -0.2715
     60  CB        10.3310  -24.8140   30.9270 C.3   168  ILE168      0.0290
     61  CG1       10.4610  -23.7070   31.9720 C.3   168  ILE168      0.0022
     62  CG2       11.2380  -25.9970   31.2700 C.3   168  ILE168      0.0023
     63  CD1       11.8700  -23.3760   32.3230 C.3   168  ILE168      0.0001
     64  N          9.4530  -26.0100   28.3720 N.am  169  LYS169     -0.1963
     65  CA         9.3430  -27.1960   27.5290 C.3   169  LYS169      0.1728
     66  C          9.9380  -27.1400   26.1300 C.2   169  LYS169      0.2616
     67  O         10.3560  -28.1620   25.5980 O.2   169  LYS169     -0.2715
     68  CB         7.8940  -27.6570   27.4510 C.3   169  LYS169      0.0311
     69  CG         7.5690  -28.7820   28.4270 C.3   169  LYS169      0.0038
     70  CD         7.1440  -28.2710   29.7940 C.3   169  LYS169      0.0206
     71  CE         6.8980  -29.4350   30.7630 C.3   169  LYS169      0.1093
     72  NZ         5.9470  -30.4560   30.2380 N.3   169  LYS169     -0.1314
     73  N          9.9960  -25.9570   25.5400 N.am  170  TRP170     -0.1974
     74  CA        10.5520  -25.8280   24.2010 C.3   170  TRP170      0.1640
     75  C         11.9880  -25.3200   24.1790 C.2   170  TRP170      0.2290
     76  O         12.6980  -25.5030   23.1820 O.2   170  TRP170     -0.2864
     77  CB         9.6900  -24.8870   23.3720 C.3   170  TRP170      0.0576
     78  CG         8.3350  -25.4140   23.1050 C.ar  170  TRP170      0.0006
     79  CD1        7.9170  -26.0670   21.9850 C.ar  170  TRP170      0.0946
     80  CD2        7.2050  -25.3500   23.9850 C.ar  170  TRP170      0.0152
     81  NE1        6.5930  -26.4150   22.1100 N.ar  170  TRP170     -0.2442
     82  CE2        6.1310  -25.9870   23.3280 C.ar  170  TRP170      0.0810
     83  CE3        6.9960  -24.8170   25.2670 C.ar  170  TRP170      0.0012
     84  CZ2        4.8650  -26.1040   23.9100 C.ar  170  TRP170      0.0191
     85  CZ3        5.7390  -24.9340   25.8400 C.ar  170  TRP170      0.0001
     86  CH2        4.6920  -25.5710   25.1620 C.ar  170  TRP170      0.0015
     87  N         18.2310  -22.4000   28.6050 N.3   176  LEU176     -0.1231
     88  CA        17.7160  -22.3840   29.9610 C.3   176  LEU176      0.1693
     89  C         18.8240  -22.0020   30.9300 C.2   176  LEU176      0.2591
     90  O         18.7500  -20.9800   31.6180 O.2   176  LEU176     -0.2718
     91  CB        17.1750  -23.7670   30.3420 C.3   176  LEU176      0.0284
     92  CG        15.7700  -24.1580   29.8930 C.3   176  LEU176      0.0019
     93  CD1       15.4150  -25.4800   30.5260 C.3   176  LEU176      0.0001
     94  CD2       14.7660  -23.0780   30.3080 C.3   176  LEU176      0.0001
     95  N         19.8540  -22.8410   30.9590 N.am  177  ALA177     -0.1980
     96  CA        20.9970  -22.6650   31.8400 C.3   177  ALA177      0.1597
     97  C         21.7980  -21.3810   31.6460 C.2   177  ALA177      0.2287
     98  O         21.9140  -20.5780   32.5690 O.2   177  ALA177     -0.2864
     99  CB        21.9230  -23.8750   31.7170 C.3   177  ALA177      0.0319
    100  N          5.9880  -31.6730   35.0640 N.3   209  ASP209     -0.1225
    101  CA         6.0050  -30.2140   34.9910 C.3   209  ASP209      0.1805
    102  C          7.3740  -29.5480   34.9520 C.2   209  ASP209      0.2598
    103  O          8.3730  -30.1170   35.3870 O.2   209  ASP209     -0.2718
    104  CB         5.1330  -29.5910   36.1010 C.3   209  ASP209      0.1424
    105  CG         5.8770  -29.3750   37.3960 C.2   209  ASP209      0.3668
    106  OD1        6.2430  -30.3720   38.0330 O.co2 209  ASP209     -0.2456
    107  OD2        6.0900  -28.2040   37.7800 O.co2 209  ASP209     -0.2456
    108  N          7.3850  -28.3390   34.3930 N.am  210  LEU210     -0.1966
    109  CA         8.5710  -27.5100   34.2260 C.3   210  LEU210      0.1728
    110  C          9.7760  -27.9370   35.0510 C.2   210  LEU210      0.2616
    111  O         10.7840  -28.3910   34.5050 O.2   210  LEU210     -0.2715
    112  CB         8.2240  -26.0670   34.5680 C.3   210  LEU210      0.0311
    113  CG         6.9720  -25.4940   33.9080 C.3   210  LEU210      0.0022
    114  CD1        6.8020  -24.0200   34.2870 C.3   210  LEU210      0.0001
    115  CD2        7.0930  -25.6400   32.4040 C.3   210  LEU210      0.0001
    116  N          9.6620  -27.7750   36.3660 N.am  211  SER211     -0.1950
    117  CA        10.7210  -28.1100   37.3140 C.3   211  SER211      0.1924
    118  C         11.6340  -29.2720   36.9120 C.2   211  SER211      0.2314
    119  O         12.8270  -29.0710   36.6910 O.2   211  SER211     -0.2863
    120  CB        10.1030  -28.4020   38.6770 C.3   211  SER211      0.2116
    121  OG         9.3060  -29.5680   38.6310 O.3   211  SER211     -0.2180
    122  N         14.4530  -30.0460   32.8670 N.3   214  TYR214     -0.1241
    123  CA        15.9030  -29.9000   32.7280 C.3   214  TYR214      0.1605
    124  C         16.7100  -31.0830   33.2570 C.2   214  TYR214      0.2264
    125  O         17.5670  -31.6210   32.5500 O.2   214  TYR214     -0.2867
    126  CB        16.3920  -28.6230   33.4140 C.3   214  TYR214      0.0534
    127  CG        17.8670  -28.3650   33.1940 C.ar  214  TYR214     -0.0201
    128  CD1       18.3280  -27.7530   32.0290 C.ar  214  TYR214     -0.0009
    129  CD2       18.8090  -28.7700   34.1360 C.ar  214  TYR214     -0.0009
    130  CE1       19.6950  -27.5520   31.8100 C.ar  214  TYR214      0.0417
    131  CE2       20.1750  -28.5750   33.9270 C.ar  214  TYR214      0.0417
    132  CZ        20.6120  -27.9680   32.7660 C.ar  214  TYR214      0.1957
    133  OH        21.9630  -27.7820   32.5720 O.3   214  TYR214     -0.2866
@<TRIPOS>BOND
     1     4     3    2
     2    11    12    2
     3    11    10    1
     4     9    10    1
     5     3     2    1
     6    10    13    1
     7     1     2    1
     8     2     5    1
     9     5     6    1
    10    13    14    1
    11    14    15    1
    12    79    81   ar
    13    79    78   ar
    14     6     7   ar
    15     6     8   ar
    16    81    82   ar
    17    15    16    1
    18    78    77    1
    19    78    80   ar
    20    76    75    2
    21    16    17    2
    22    82    84   ar
    23    82    80   ar
    24    77    74    1
    25    17    18    1
    26    17    19    1
    27    84    86   ar
    28    80    83   ar
    29    75    74    1
    30    74    73    1
    31    86    85   ar
    32    83    85   ar
    33    73    66   am
    34    67    66    2
    35    54    53    1
    36    54    55    1
    37    66    65    1
    38    53    50    1
    39    52    51    2
    40    55    49    1
    41    68    65    1
    42    68    69    1
    43    65    64    1
    44    51    50    1
    45    51    56   am
    46    59    58    2
    47    50    49    1
    48    49    40   am
    49    64    58   am
    50    69    70    1
    51    45    47   ar
    52    45    43   ar
    53    58    57    1
    54    87    88    1
    55    47    48   ar
    56    42    43    1
    57    42    39    1
    58    56    57    1
    59    43    44   ar
    60    40    39    1
    61    40    41    2
    62    39    38    1
    63    57    60    1
    64    70    71    1
    65    92    94    1
    66    92    91    1
    67    92    93    1
    68    88    91    1
    69    88    89    1
    70    48    46   ar
    71    32    31    2
    72    72    71    1
    73    44    46   ar
    74    38    31   am
    75    28    25    1
    76    60    62    1
    77    60    61    1
    78    89    95   am
    79    89    90    2
    80    31    30    1
    81    95    96    1
    82    97    96    1
    83    97    98    2
    84    99    96    1
    85   130   128   ar
    86   130   132   ar
    87    61    63    1
    88   128   127   ar
    89    29    30    1
    90    29    26   am
    91    25    26    1
    92    25    24    1
    93    30    33    1
    94   115   113    1
    95    26    27    2
    96   125   124    2
    97   133   132    1
    98   123   122    1
    99   123   124    1
   100   123   126    1
   101   132   131   ar
   102    33    34    1
   103    24    22   am
   104   127   126    1
   105   127   129   ar
   106   113   114    1
   107   113   112    1
   108   131   129   ar
   109   109   108    1
   110   109   112    1
   111   109   110    1
   112    20    21    1
   113    34    35    1
   114    35    36    1
   115    22    23    2
   116    22    21    1
   117   108   102   am
   118   111   110    2
   119   102   101    1
   120   102   103    2
   121   101   100    1
   122   101   104    1
   123   110   116   am
   124    36    37    1
   125   104   105    1
   126   116   117    1
   127   119   118    2
   128   118   117    1
   129   117   120    1
   130   105   107   ar
   131   105   106   ar
   132   121   120    1
