@<TRIPOS>MOLECULE
tmp/2g2iA01.pdb
 135 125 0 0 0
SMALL
GASTEIGER

@<TRIPOS>ATOM
      1  N        -14.0070  -21.1840  -20.4000 N.3    20  LEU20      -0.1231
      2  CA       -12.8550  -21.8310  -19.7850 C.3    20  LEU20       0.1693
      3  C        -12.5640  -23.1510  -20.5450 C.2    20  LEU20       0.2593
      4  O        -11.3990  -23.4770  -20.6830 O.2    20  LEU20      -0.2718
      5  CB       -13.1210  -22.2120  -18.3360 C.3    20  LEU20       0.0284
      6  CG       -13.4310  -21.2240  -17.2400 C.3    20  LEU20       0.0019
      7  CD1      -14.0300  -21.9490  -16.0490 C.3    20  LEU20       0.0001
      8  CD2      -12.1620  -20.5180  -16.8630 C.3    20  LEU20       0.0001
      9  N        -13.6020  -23.8460  -21.0430 N.am   21  GLY21      -0.1942
     10  CA       -13.4120  -25.1000  -21.7410 C.3    21  GLY21       0.2014
     11  C        -14.2580  -25.4760  -22.9770 C.2    21  GLY21       0.2639
     12  O        -15.2710  -24.8300  -23.2230 O.2    21  GLY21      -0.2714
     13  N        -13.8080  -26.4670  -23.7880 N.am   22  GLY22      -0.1954
     14  CA       -14.6020  -26.9480  -24.9500 C.3    22  GLY22       0.1869
     15  C        -15.5380  -28.0250  -24.4270 C.2    22  GLY22       0.2309
     16  O        -15.8340  -29.0140  -25.1420 O.2    22  GLY22      -0.2863
     17  N        -20.7020  -28.6380  -23.5080 N.3    23  GLY23      -0.1225
     18  CA       -19.4070  -28.8360  -24.0960 C.3    23  GLY23       0.1811
     19  C        -18.5430  -27.5930  -23.8350 C.2    23  GLY23       0.2280
     20  O        -17.3610  -27.5570  -24.1620 O.2    23  GLY23      -0.2866
     21  N        -17.7730  -24.7400  -20.6750 N.3    25  VAL25      -0.1245
     22  CA       -17.7190  -24.5590  -19.2410 C.3    25  VAL25       0.1561
     23  C        -17.2220  -23.1680  -18.9010 C.2    25  VAL25       0.2260
     24  O        -16.1040  -22.8120  -19.2550 O.2    25  VAL25      -0.2867
     25  CB       -16.7620  -25.5200  -18.5550 C.3    25  VAL25       0.0252
     26  CG1      -16.5820  -25.1610  -17.0970 C.3    25  VAL25       0.0019
     27  CG2      -17.2610  -26.9450  -18.7000 C.3    25  VAL25       0.0019
     28  N        -18.1420  -22.7330  -11.1280 N.3    38  ALA38      -0.1245
     29  CA       -17.8410  -23.2050  -12.4610 C.3    38  ALA38       0.1562
     30  C        -19.1930  -23.5790  -13.0290 C.2    38  ALA38       0.2260
     31  O        -20.0460  -24.0900  -12.3110 O.2    38  ALA38      -0.2867
     32  CB       -16.9680  -24.4000  -12.3930 C.3    38  ALA38       0.0290
     33  N        -20.9500  -25.7020  -16.1350 N.3    40  LYS40      -0.1245
     34  CA       -20.8570  -26.5740  -17.3000 C.3    40  LYS40       0.1561
     35  C        -22.1310  -26.3900  -18.1140 C.2    40  LYS40       0.2260
     36  O        -23.2370  -26.4360  -17.5730 O.2    40  LYS40      -0.2867
     37  CB       -20.6940  -28.0400  -16.8720 C.3    40  LYS40       0.0271
     38  CG       -20.3100  -28.9710  -18.0280 C.3    40  LYS40       0.0035
     39  CD       -19.8980  -30.3770  -17.5550 C.3    40  LYS40       0.0206
     40  CE       -19.3420  -31.2160  -18.7190 C.3    40  LYS40       0.1093
     41  NZ       -18.8100  -32.5530  -18.3100 N.3    40  LYS40      -0.1314
     42  N        -15.1860  -32.6670   -6.2240 N.3    68  VAL68      -0.1245
     43  CA       -15.7920  -31.4020   -6.6290 C.3    68  VAL68       0.1561
     44  C        -17.2800  -31.3910   -6.2980 C.2    68  VAL68       0.2260
     45  O        -18.0280  -32.2960   -6.6720 O.2    68  VAL68      -0.2867
     46  CB       -15.5950  -31.1690   -8.1250 C.3    68  VAL68       0.0252
     47  CG1      -16.2220  -29.8550   -8.5240 C.3    68  VAL68       0.0019
     48  CG2      -14.1110  -31.1790   -8.4500 C.3    68  VAL68       0.0019
     49  N        -21.0470  -25.9280  -10.1140 N.3    84  THR84      -0.1203
     50  CA       -20.2590  -26.5650   -9.0630 C.3    84  THR84       0.1994
     51  C        -19.2500  -25.5850   -8.4730 C.2    84  THR84       0.2618
     52  O        -19.0990  -24.4720   -8.9620 O.2    84  THR84      -0.2717
     53  CB       -19.4980  -27.7830   -9.5910 C.3    84  THR84       0.1784
     54  OG1      -18.2580  -27.3630  -10.1690 O.3    84  THR84      -0.2211
     55  CG2      -20.3190  -28.4920  -10.6390 C.3    84  THR84       0.0376
     56  N        -18.5680  -25.9980   -7.4110 N.am   85  GLU85      -0.1965
     57  CA       -17.5840  -25.1360   -6.7780 C.3    85  GLU85       0.1733
     58  C        -16.4790  -24.9110   -7.7780 C.2    85  GLU85       0.2616
     59  O        -16.2140  -25.7720   -8.6120 O.2    85  GLU85      -0.2715
     60  CB       -17.0120  -25.7850   -5.5230 C.3    85  GLU85       0.0429
     61  CG       -16.3640  -27.1270   -5.7600 C.3    85  GLU85       0.1163
     62  CD       -15.6400  -27.6350   -4.5370 C.2    85  GLU85       0.3649
     63  OE1      -15.3530  -28.8460   -4.4740 O.co2  85  GLU85      -0.2457
     64  OE2      -15.3480  -26.8200   -3.6410 O.co2  85  GLU85      -0.2457
     65  N        -15.8410  -23.7490   -7.6910 N.am   86  PHE86      -0.1960
     66  CA       -14.7610  -23.3890   -8.5990 C.3    86  PHE86       0.1771
     67  C        -13.4250  -23.8540   -8.0310 C.2    86  PHE86       0.2619
     68  O        -13.2390  -23.8810   -6.8240 O.2    86  PHE86      -0.2715
     69  CB       -14.7420  -21.8690   -8.8060 C.3    86  PHE86       0.0574
     70  CG       -13.8220  -21.4250   -9.8980 C.ar   86  PHE86      -0.0200
     71  CD1      -14.2420  -21.4360  -11.2240 C.ar   86  PHE86      -0.0042
     72  CD2      -12.5050  -21.0880   -9.6170 C.ar   86  PHE86      -0.0042
     73  CE1      -13.3660  -21.1270  -12.2460 C.ar   86  PHE86      -0.0003
     74  CE2      -11.6210  -20.7790  -10.6330 C.ar   86  PHE86      -0.0003
     75  CZ       -12.0500  -20.8000  -11.9470 C.ar   86  PHE86      -0.0000
     76  N        -12.4990  -24.2260   -8.8990 N.am   87  MET87      -0.1977
     77  CA       -11.1950  -24.6820   -8.4530 C.3    87  MET87       0.1605
     78  C        -10.1510  -23.8340   -9.1550 C.2    87  MET87       0.2287
     79  O         -9.6310  -24.2090  -10.1980 O.2    87  MET87      -0.2864
     80  CB       -11.0210  -26.1560   -8.8050 C.3    87  MET87       0.0413
     81  CG       -11.8540  -27.1120   -7.9630 C.3    87  MET87       0.0598
     82  SD       -11.1200  -27.3970   -6.3300 S.3    87  MET87      -0.1393
     83  CE       -12.4940  -26.9190   -5.2410 C.3    87  MET87       0.0692
     84  N         -7.2530  -24.9490  -11.8370 N.3    90  GLY90      -0.1210
     85  CA        -7.5140  -25.8360  -12.9560 C.3    90  GLY90       0.1956
     86  C         -7.0400  -27.2660  -12.7940 C.2    90  GLY90       0.2611
     87  O         -6.6150  -27.6710  -11.7080 O.2    90  GLY90      -0.2717
     88  N         -7.0940  -28.0270  -13.8860 N.am   91  ASN91      -0.1974
     89  CA        -6.7070  -29.4320  -13.8540 C.3    91  ASN91       0.1688
     90  C         -5.2720  -29.7300  -13.4030 C.2    91  ASN91       0.2292
     91  O         -4.3410  -28.9460  -13.6240 O.2    91  ASN91      -0.2864
     92  CB        -6.9910  -30.0870  -15.2090 C.3    91  ASN91       0.1181
     93  CG        -6.0740  -29.6020  -16.2940 C.2    91  ASN91       0.2629
     94  OD1       -4.8800  -29.9010  -16.2910 O.2    91  ASN91      -0.2716
     95  ND2       -6.6240  -28.8460  -17.2360 N.am   91  ASN91      -0.0877
     96  N         -6.0500  -35.0940  -15.9940 N.3   136  ARG136     -0.1231
     97  CA        -6.9030  -34.1110  -16.6760 C.3   136  ARG136      0.1694
     98  C         -8.3130  -33.9470  -16.0620 C.2   136  ARG136      0.2592
     99  O         -9.0810  -33.0690  -16.4770 O.2   136  ARG136     -0.2718
    100  CB        -7.0830  -34.4850  -18.1420 C.3   136  ARG136      0.0321
    101  CG        -7.7820  -35.8060  -18.3060 C.3   136  ARG136      0.0489
    102  CD        -8.4880  -35.9370  -19.6330 C.3   136  ARG136      0.2205
    103  NE        -9.0790  -37.2660  -19.7590 N.pl3 136  ARG136     -0.0865
    104  CZ        -8.3740  -38.3860  -19.8920 C.cat 136  ARG136      0.5346
    105  NH1       -7.0430  -38.3440  -19.9280 N.pl3 136  ARG136      0.1354
    106  NH2       -9.0050  -39.5520  -19.9610 N.pl3 136  ARG136      0.1354
    107  N         -8.6760  -34.7940  -15.1000 N.am  137  ASN137     -0.1974
    108  CA        -9.9950  -34.6780  -14.4840 C.3   137  ASN137      0.1688
    109  C         -9.9440  -34.3980  -12.9960 C.2   137  ASN137      0.2292
    110  O        -10.9630  -34.4690  -12.3090 O.2   137  ASN137     -0.2864
    111  CB       -10.8470  -35.9170  -14.7490 C.3   137  ASN137      0.1181
    112  CG       -11.1700  -36.0940  -16.2120 C.2   137  ASN137      0.2629
    113  OD1      -11.5160  -35.1380  -16.9070 O.2   137  ASN137     -0.2716
    114  ND2      -11.0580  -37.3220  -16.6920 N.am  137  ASN137     -0.0877
    115  N         -8.9350  -31.4740  -10.1540 N.3   139  LEU139     -0.1245
    116  CA        -8.7810  -30.0230  -10.1230 C.3   139  LEU139      0.1561
    117  C         -7.9270  -29.6040   -8.9470 C.2   139  LEU139      0.2260
    118  O         -7.7170  -30.3840   -8.0200 O.2   139  LEU139     -0.2867
    119  CB       -10.1410  -29.3450  -10.0650 C.3   139  LEU139      0.0270
    120  CG       -10.7780  -29.1440  -11.4430 C.3   139  LEU139      0.0019
    121  CD1      -10.3890  -30.2530  -12.3850 C.3   139  LEU139      0.0001
    122  CD2      -12.2710  -29.0980  -11.2950 C.3   139  LEU139      0.0001
    123  N        -12.7970  -34.6940  -10.2430 N.3   149  ALA149     -0.1231
    124  CA       -13.9410  -34.1430  -10.9620 C.3   149  ALA149      0.1694
    125  C        -14.1550  -34.8340  -12.3000 C.2   149  ALA149      0.2592
    126  O        -13.3370  -35.6460  -12.7120 O.2   149  ALA149     -0.2718
    127  CB       -13.7350  -32.6630  -11.1780 C.3   149  ALA149      0.0304
    128  N        -15.2540  -34.4880  -12.9730 N.am  150  ASP150     -0.1974
    129  CA       -15.6400  -35.0380  -14.2870 C.3   150  ASP150      0.1709
    130  C        -16.3000  -36.4030  -14.1390 C.2   150  ASP150      0.2293
    131  O        -15.7030  -37.4510  -14.4060 O.2   150  ASP150     -0.2864
    132  CB       -14.4370  -35.1250  -15.2400 C.3   150  ASP150      0.1436
    133  CG       -14.8460  -35.0160  -16.7040 C.2   150  ASP150      0.3671
    134  OD1      -13.9470  -34.8780  -17.5710 O.co2 150  ASP150     -0.2456
    135  OD2      -16.0670  -35.0680  -16.9890 O.co2 150  ASP150     -0.2456
@<TRIPOS>BOND
     1    16    15    2
     2    14    15    1
     3    14    13    1
     4    20    19    2
     5    18    19    1
     6    18    17    1
     7    13    11   am
     8    12    11    2
     9    11    10    1
    10    10     9    1
    11     9     3   am
    12     4     3    2
    13    21    22    1
    14     3     2    1
    15     1     2    1
    16   106   104    1
    17   105   104    1
    18   104   103    2
    19     2     5    1
    20   103   102    1
    21   102   101    1
    22    24    23    2
    23    22    23    1
    24    22    25    1
    25    40    41    1
    26    40    39    1
    27    27    25    1
    28    25    26    1
    29     5     6    1
    30   101   100    1
    31   100    97    1
    32    35    36    2
    33    35    34    1
    34    38    39    1
    35    38    37    1
    36   134   133   ar
    37    34    37    1
    38    34    33    1
    39     6     8    1
    40     6     7    1
    41    95    93   am
    42   135   133   ar
    43   113   112    2
    44   133   132    1
    45   114   112   am
    46    97    98    1
    47    97    96    1
    48    99    98    2
    49    93    94    2
    50    93    92    1
    51   112   111    1
    52    98   107   am
    53   132   129    1
    54    92    89    1
    55   107   108    1
    56   111   108    1
    57   108   109    1
    58   131   130    2
    59   129   130    1
    60   129   128    1
    61    88    89    1
    62    88    86   am
    63    89    90    1
    64    91    90    2
    65    30    29    1
    66    30    31    2
    67   109   110    2
    68   128   125   am
    69    85    86    1
    70    85    84    1
    71    86    87    2
    72   126   125    2
    73    29    32    1
    74    29    28    1
    75   121   120    1
    76   125   124    1
    77    73    75   ar
    78    73    71   ar
    79    75    74   ar
    80   120   122    1
    81   120   119    1
    82    71    70   ar
    83   127   124    1
    84   124   123    1
    85    55    53    1
    86    74    72   ar
    87    79    78    2
    88    54    53    1
    89   115   116    1
    90   116   119    1
    91   116   117    1
    92    49    50    1
    93    70    72   ar
    94    70    69    1
    95    53    50    1
    96    78    77    1
    97    50    51    1
    98    52    51    2
    99   117   118    2
   100    76    77    1
   101    76    67   am
   102    69    66    1
   103    80    77    1
   104    80    81    1
   105    59    58    2
   106    66    67    1
   107    66    65    1
   108    47    46    1
   109    51    56   am
   110    48    46    1
   111    46    43    1
   112    67    68    2
   113    81    82    1
   114    58    65   am
   115    58    57    1
   116    56    57    1
   117    57    60    1
   118    45    44    2
   119    43    44    1
   120    43    42    1
   121    82    83    1
   122    61    60    1
   123    61    62    1
   124    62    63   ar
   125    62    64   ar
