@<TRIPOS>MOLECULE
tmp/2g2iA00.pdb
 116 114 0 0 0
SMALL
GASTEIGER

@<TRIPOS>ATOM
      1  N        -13.5370  -42.4970  -15.6660 N.3   132  ASP132     -0.1239
      2  CA       -12.5270  -41.7180  -16.3900 C.3   132  ASP132      0.1674
      3  C        -11.6060  -40.9840  -15.4210 C.2   132  ASP132      0.2266
      4  O        -11.5250  -39.7580  -15.4110 O.2   132  ASP132     -0.2867
      5  CB       -13.1960  -40.7200  -17.3490 C.3   132  ASP132      0.1410
      6  CG       -12.2200  -40.1340  -18.3670 C.2   132  ASP132      0.3668
      7  OD1      -11.0640  -40.6160  -18.4320 O.co2 132  ASP132     -0.2456
      8  OD2      -12.6150  -39.1990  -19.1050 O.co2 132  ASP132     -0.2456
      9  N         -6.0500  -35.0940  -15.9940 N.3   136  ARG136     -0.1245
     10  CA        -6.9030  -34.1110  -16.6760 C.3   136  ARG136      0.1563
     11  C         -8.3130  -33.9470  -16.0620 C.2   136  ARG136      0.2260
     12  O         -9.0810  -33.0690  -16.4770 O.2   136  ARG136     -0.2867
     13  CB        -7.0830  -34.4850  -18.1420 C.3   136  ARG136      0.0307
     14  CG        -7.7820  -35.8060  -18.3060 C.3   136  ARG136      0.0489
     15  CD        -8.4880  -35.9370  -19.6330 C.3   136  ARG136      0.2205
     16  NE        -9.0790  -37.2660  -19.7590 N.pl3 136  ARG136     -0.0865
     17  CZ        -8.3740  -38.3860  -19.8920 C.cat 136  ARG136      0.5346
     18  NH1       -7.0430  -38.3440  -19.9280 N.pl3 136  ARG136      0.1354
     19  NH2       -9.0050  -39.5520  -19.9610 N.pl3 136  ARG136      0.1354
     20  N        -17.6400  -48.0710  -28.5550 N.3   168  ALA168     -0.1231
     21  CA       -17.2440  -46.8490  -27.8730 C.3   168  ALA168      0.1694
     22  C        -15.7680  -46.5910  -28.1130 C.2   168  ALA168      0.2592
     23  O        -15.0790  -47.3850  -28.7580 O.2   168  ALA168     -0.2718
     24  CB       -17.5100  -46.9690  -26.3800 C.3   168  ALA168      0.0304
     25  N        -15.2940  -45.4680  -27.5920 N.am  169  LYS169     -0.1966
     26  CA       -13.8980  -45.0870  -27.7210 C.3   169  LYS169      0.1728
     27  C        -13.4700  -44.4850  -26.4000 C.2   169  LYS169      0.2616
     28  O        -14.0050  -43.4570  -25.9830 O.2   169  LYS169     -0.2715
     29  CB       -13.7210  -44.0580  -28.8390 C.3   169  LYS169      0.0311
     30  CG       -14.0400  -44.5880  -30.2240 C.3   169  LYS169      0.0038
     31  CD       -13.6720  -43.5870  -31.3090 C.3   169  LYS169      0.0206
     32  CE       -13.9550  -44.1560  -32.6900 C.3   169  LYS169      0.1093
     33  NZ       -13.5190  -43.2390  -33.7760 N.3   169  LYS169     -0.1314
     34  N        -12.5170  -45.1250  -25.7320 N.am  170  PHE170     -0.1960
     35  CA       -12.0500  -44.6180  -24.4490 C.3   170  PHE170      0.1756
     36  C        -10.5300  -44.4360  -24.3420 C.2   170  PHE170      0.2461
     37  O         -9.7710  -45.0010  -25.1240 O.2   170  PHE170     -0.2730
     38  CB       -12.5720  -45.5100  -23.3080 C.3   170  PHE170      0.0574
     39  CG       -12.9420  -46.9190  -23.7230 C.ar  170  PHE170     -0.0200
     40  CD1      -12.0300  -47.7330  -24.3950 C.ar  170  PHE170     -0.0042
     41  CD2      -14.1870  -47.4510  -23.3680 C.ar  170  PHE170     -0.0042
     42  CE1      -12.3470  -49.0550  -24.7040 C.ar  170  PHE170     -0.0003
     43  CE2      -14.5170  -48.7710  -23.6700 C.ar  170  PHE170     -0.0003
     44  CZ       -13.5940  -49.5760  -24.3390 C.ar  170  PHE170     -0.0000
     45  N        -10.0690  -43.6240  -23.3710 N.am  171  PRO171     -0.2716
     46  CA        -8.6360  -43.3680  -23.1670 C.3   171  PRO171      0.1536
     47  C         -7.8400  -44.6400  -22.9440 C.2   171  PRO171      0.2598
     48  O         -7.6860  -45.0940  -21.8190 O.2   171  PRO171     -0.2715
     49  CB        -8.6210  -42.4590  -21.9400 C.3   171  PRO171      0.0310
     50  CG        -9.8540  -42.8580  -21.2030 C.3   171  PRO171      0.0237
     51  CD       -10.8620  -42.9780  -22.3080 C.3   171  PRO171      0.0939
     52  N         -7.3190  -45.1990  -24.0230 N.am  172  ILE172     -0.1964
     53  CA        -6.5620  -46.4420  -23.9540 C.3   172  ILE172      0.1727
     54  C         -5.5990  -46.5930  -22.7720 C.2   172  ILE172      0.2616
     55  O         -5.8150  -47.4470  -21.9190 O.2   172  ILE172     -0.2715
     56  CB        -5.7890  -46.6850  -25.2920 C.3   172  ILE172      0.0290
     57  CG1       -6.7890  -46.8440  -26.4410 C.3   172  ILE172      0.0022
     58  CG2       -4.8930  -47.9060  -25.1860 C.3   172  ILE172      0.0023
     59  CD1       -7.8550  -47.8750  -26.1780 C.3   172  ILE172      0.0001
     60  N         -4.5580  -45.7680  -22.7070 N.am  173  LYS173     -0.1963
     61  CA        -3.5600  -45.8770  -21.6430 C.3   173  LYS173      0.1728
     62  C         -4.0260  -45.8030  -20.1640 C.2   173  LYS173      0.2616
     63  O         -3.2370  -46.0940  -19.2510 O.2   173  LYS173     -0.2715
     64  CB        -2.4520  -44.8550  -21.8820 C.3   173  LYS173      0.0311
     65  CG        -1.7310  -44.9960  -23.2080 C.3   173  LYS173      0.0038
     66  CD        -0.8570  -43.7740  -23.4390 C.3   173  LYS173      0.0206
     67  CE        -0.2390  -43.7340  -24.8200 C.3   173  LYS173      0.1093
     68  NZ         0.8950  -44.6700  -24.9230 N.3   173  LYS173     -0.1314
     69  N         -5.2830  -45.4230  -19.9240 N.am  174  TRP174     -0.1974
     70  CA        -5.8240  -45.3620  -18.5630 C.3   174  TRP174      0.1640
     71  C         -6.8370  -46.4730  -18.3470 C.2   174  TRP174      0.2290
     72  O         -7.2640  -46.7090  -17.2140 O.2   174  TRP174     -0.2864
     73  CB        -6.5320  -44.0360  -18.3000 C.3   174  TRP174      0.0576
     74  CG        -5.6080  -42.9260  -18.0550 C.ar  174  TRP174      0.0006
     75  CD1       -5.0650  -42.5580  -16.8590 C.ar  174  TRP174      0.0946
     76  CD2       -4.9990  -42.1000  -19.0470 C.ar  174  TRP174      0.0152
     77  NE1       -4.1420  -41.5570  -17.0470 N.ar  174  TRP174     -0.2442
     78  CE2       -4.0820  -41.2590  -18.3840 C.ar  174  TRP174      0.0810
     79  CE3       -5.1330  -41.9930  -20.4390 C.ar  174  TRP174      0.0012
     80  CZ2       -3.3030  -40.3260  -19.0660 C.ar  174  TRP174      0.0191
     81  CZ3       -4.3620  -41.0730  -21.1080 C.ar  174  TRP174      0.0001
     82  CH2       -3.4570  -40.2510  -20.4230 C.ar  174  TRP174      0.0015
     83  N        -10.9290  -52.7790  -21.8980 N.3   180  LEU180     -0.1245
     84  CA       -10.4960  -52.5170  -23.2690 C.3   180  LEU180      0.1561
     85  C        -10.9640  -53.6360  -24.1830 C.2   180  LEU180      0.2260
     86  O        -11.2150  -53.4330  -25.3730 O.2   180  LEU180     -0.2867
     87  CB        -8.9800  -52.4860  -23.3400 C.3   180  LEU180      0.0270
     88  CG        -8.2730  -51.1510  -23.2370 C.3   180  LEU180      0.0019
     89  CD1       -6.7960  -51.3640  -23.5750 C.3   180  LEU180      0.0001
     90  CD2       -8.9060  -50.1560  -24.2130 C.3   180  LEU180      0.0001
     91  N          3.0400  -38.2260  -20.4000 N.3   207  SER207     -0.1217
     92  CA         2.0060  -38.9860  -21.0710 C.3   207  SER207      0.1889
     93  C          2.3610  -40.4570  -20.8300 C.2   207  SER207      0.2288
     94  O          3.4970  -40.8750  -21.0330 O.2   207  SER207     -0.2866
     95  CB         1.9990  -38.6520  -22.5640 C.3   207  SER207      0.2089
     96  OG         0.7960  -39.0870  -23.1710 O.3   207  SER207     -0.2183
     97  N         -1.0660  -46.0970  -29.1460 N.3   214  LEU214     -0.1245
     98  CA        -2.2980  -46.5800  -28.5210 C.3   214  LEU214      0.1561
     99  C         -2.6700  -48.0060  -28.9180 C.2   214  LEU214      0.2260
    100  O         -3.2180  -48.7770  -28.1220 O.2   214  LEU214     -0.2867
    101  CB        -3.4760  -45.6860  -28.8870 C.3   214  LEU214      0.0270
    102  CG        -3.5230  -44.2530  -28.3870 C.3   214  LEU214      0.0019
    103  CD1       -4.9100  -43.6780  -28.6980 C.3   214  LEU214      0.0001
    104  CD2       -3.2480  -44.2220  -26.8750 C.3   214  LEU214      0.0001
    105  N         -2.4840  -52.6960  -25.3340 N.3   218  TYR218     -0.1241
    106  CA        -3.0850  -53.9690  -24.9070 C.3   218  TYR218      0.1605
    107  C         -2.2430  -55.2170  -25.1600 C.2   218  TYR218      0.2264
    108  O         -2.0070  -56.0010  -24.2460 O.2   218  TYR218     -0.2867
    109  CB        -4.4460  -54.1610  -25.5670 C.3   218  TYR218      0.0534
    110  CG        -5.2030  -55.3710  -25.0770 C.ar  218  TYR218     -0.0201
    111  CD1       -6.3590  -55.2270  -24.3060 C.ar  218  TYR218     -0.0009
    112  CD2       -4.7800  -56.6540  -25.3860 C.ar  218  TYR218     -0.0009
    113  CE1       -7.0860  -56.3480  -23.8510 C.ar  218  TYR218      0.0417
    114  CE2       -5.4870  -57.7780  -24.9420 C.ar  218  TYR218      0.0417
    115  CZ        -6.6410  -57.6270  -24.1740 C.ar  218  TYR218      0.1957
    116  OH        -7.3380  -58.7430  -23.7250 O.3   218  TYR218     -0.2866
@<TRIPOS>BOND
     1    33    32    1
     2    32    31    1
     3    31    30    1
     4    30    29    1
     5    97    98    1
     6    99    98    1
     7    99   100    2
     8   101    98    1
     9   101   102    1
    10    29    26    1
    11    23    22    2
    12   103   102    1
    13    20    21    1
    14   102   104    1
    15    22    21    1
    16    22    25   am
    17    21    24    1
    18    26    25    1
    19    26    27    1
    20    57    59    1
    21    57    56    1
    22    27    28    2
    23    27    34   am
    24    34    35    1
    25   109   110    1
    26   109   106    1
    27   112   110   ar
    28   112   114   ar
    29    86    85    2
    30   105   106    1
    31    56    58    1
    32    56    53    1
    33   107   106    1
    34   107   108    2
    35    37    36    2
    36   110   111   ar
    37   114   115   ar
    38    68    67    1
    39    67    66    1
    40    42    40   ar
    41    42    44   ar
    42    35    36    1
    43    35    38    1
    44    40    39   ar
    45    36    45   am
    46    44    43   ar
    47   111   113   ar
    48    90    88    1
    49    85    84    1
    50   115   113   ar
    51   115   116    1
    52    52    53    1
    53    52    47   am
    54    53    54    1
    55    39    41   ar
    56    39    38    1
    57    43    41   ar
    58    89    88    1
    59    66    65    1
    60    45    46    1
    61    45    51    1
    62    87    84    1
    63    87    88    1
    64    84    83    1
    65    65    64    1
    66    96    95    1
    67    46    47    1
    68    46    49    1
    69    47    48    2
    70    54    60   am
    71    54    55    2
    72    60    61    1
    73    95    92    1
    74    51    50    1
    75    49    50    1
    76    64    61    1
    77    61    62    1
    78    81    79   ar
    79    81    82   ar
    80    92    93    1
    81    92    91    1
    82    94    93    2
    83    79    76   ar
    84    82    80   ar
    85    62    69   am
    86    62    63    2
    87    19    17    1
    88    18    17    1
    89    69    70    1
    90    17    16    2
    91    16    15    1
    92    15    14    1
    93     8     6   ar
    94    80    78   ar
    95    76    78   ar
    96    76    74   ar
    97    70    71    1
    98    70    73    1
    99     7     6   ar
   100    78    77   ar
   101     6     5    1
   102    71    72    2
   103    14    13    1
   104    73    74    1
   105    13    10    1
   106    74    75   ar
   107     5     2    1
   108    77    75   ar
   109    10    11    1
   110    10     9    1
   111    12    11    2
   112     2     1    1
   113     2     3    1
   114     3     4    2
