@<TRIPOS>MOLECULE
tmp/2g2lB00.pdb
 83 80 0 0 0
SMALL
GASTEIGER

@<TRIPOS>ATOM
      1  N         25.3910    4.2900   41.9510 N.3     9  LYS9       -0.1245
      2  CA        25.4890    5.3790   42.8900 C.3     9  LYS9        0.1561
      3  C         25.8380    6.6830   42.1720 C.2     9  LYS9        0.2260
      4  O         26.5740    6.6950   41.1950 O.2     9  LYS9       -0.2867
      5  CB        26.5470    5.0670   43.9680 C.3     9  LYS9        0.0271
      6  CG        26.0270    4.4660   45.2740 C.3     9  LYS9        0.0035
      7  CD        26.8030    5.0210   46.4670 C.3     9  LYS9        0.0206
      8  CE        28.0600    4.2190   46.7720 C.3     9  LYS9        0.1093
      9  NZ        27.6900    2.8930   47.3430 N.3     9  LYS9       -0.1314
     10  N         24.8880   12.0440   45.1720 N.3    12  LYS12      -0.1231
     11  CA        24.0680   11.9260   46.4060 C.3    12  LYS12       0.1693
     12  C         23.8090   10.4640   46.8550 C.2    12  LYS12       0.2593
     13  O         22.8890   10.1950   47.6360 O.2    12  LYS12      -0.2718
     14  CB        22.7450   12.7110   46.2730 C.3    12  LYS12       0.0285
     15  CG        22.7720   14.1000   45.7760 C.3    12  LYS12       0.0035
     16  CD        21.2920   14.4540   45.8100 C.3    12  LYS12       0.0206
     17  CE        20.9130   15.3930   44.6620 C.3    12  LYS12       0.1093
     18  NZ        20.9450   14.7340   43.3640 N.3    12  LYS12      -0.1314
     19  N         24.6410    9.5360   46.3750 N.am   13  GLY13      -0.1942
     20  CA        24.4910    8.0990   46.6470 C.3    13  GLY13       0.2014
     21  C         23.3160    7.4710   45.9140 C.2    13  GLY13       0.2639
     22  O         23.1420    7.6410   44.7080 O.2    13  GLY13      -0.2714
     23  N         22.4830    6.7610   46.6610 N.am   14  LEU14      -0.1963
     24  CA        21.4580    5.9480   46.0520 C.3    14  LEU14       0.1728
     25  C         20.1220    6.6740   45.8230 C.2    14  LEU14       0.2617
     26  O         19.4240    6.3690   44.8580 O.2    14  LEU14      -0.2715
     27  CB        21.3250    4.6090   46.7990 C.3    14  LEU14       0.0311
     28  CG        22.4180    3.5680   46.4620 C.3    14  LEU14       0.0022
     29  CD1       22.8490    2.7710   47.6650 C.3    14  LEU14       0.0001
     30  CD2       21.9710    2.6370   45.3360 C.3    14  LEU14       0.0001
     31  N         19.7920    7.6450   46.6780 N.am   15  GLY15      -0.1940
     32  CA        18.5650    8.4470   46.5180 C.3    15  GLY15       0.2014
     33  C         17.3070    7.7870   47.0520 C.2    15  GLY15       0.2639
     34  O         16.2100    7.8680   46.4190 O.2    15  GLY15      -0.2714
     35  N         17.4810    7.0980   48.1920 N.am   16  PHE16      -0.1959
     36  CA        16.3830    6.5390   49.0110 C.3    16  PHE16       0.1771
     37  C         16.7410    6.3430   50.4870 C.2    16  PHE16       0.2620
     38  O         17.9290    6.1750   50.8640 O.2    16  PHE16      -0.2715
     39  CB        15.7700    5.2540   48.4180 C.3    16  PHE16       0.0574
     40  CG        16.7180    4.0850   48.3270 C.ar   16  PHE16      -0.0200
     41  CD1       16.8370    3.1790   49.3970 C.ar   16  PHE16      -0.0042
     42  CD2       17.4630    3.8590   47.1540 C.ar   16  PHE16      -0.0042
     43  CE1       17.7080    2.0800   49.3170 C.ar   16  PHE16      -0.0003
     44  CE2       18.3150    2.7740   47.0540 C.ar   16  PHE16      -0.0003
     45  CZ        18.4630    1.8760   48.1520 C.ar   16  PHE16      -0.0000
     46  N         15.7010    6.3980   51.3250 N.am   17  SER17      -0.1936
     47  CA        15.8680    6.1430   52.7590 C.3    17  SER17       0.2055
     48  C         15.1830    4.8510   53.1500 C.2    17  SER17       0.2642
     49  O         14.2450    4.4090   52.4900 O.2    17  SER17      -0.2714
     50  CB        15.3320    7.3020   53.5960 C.3    17  SER17       0.2130
     51  OG        16.2200    8.4130   53.5740 O.3    17  SER17      -0.2179
     52  N         15.6840    4.2360   54.2190 N.am   18  ILE18      -0.1977
     53  CA        15.0850    3.0060   54.7180 C.3    18  ILE18       0.1596
     54  C         14.5930    3.0820   56.1730 C.2    18  ILE18       0.2287
     55  O         14.9860    3.9730   56.9340 O.2    18  ILE18      -0.2864
     56  CB        15.9950    1.7850   54.5220 C.3    18  ILE18       0.0276
     57  CG1       17.3560    2.0130   55.1930 C.3    18  ILE18       0.0022
     58  CG2       16.0800    1.3960   53.0310 C.3    18  ILE18       0.0022
     59  CD1       18.0610    0.7770   55.4110 C.3    18  ILE18       0.0001
     60  N         22.0690   -0.7420   57.2590 N.3    73  VAL73      -0.1245
     61  CA        22.6160    0.5230   56.8650 C.3    73  VAL73       0.1561
     62  C         24.1000    0.3010   56.6170 C.2    73  VAL73       0.2260
     63  O         24.6790    0.8770   55.6940 O.2    73  VAL73      -0.2867
     64  CB        22.3590    1.5780   57.9470 C.3    73  VAL73       0.0252
     65  CG1       23.3560    2.7250   57.8600 C.3    73  VAL73       0.0019
     66  CG2       20.9330    2.0960   57.8470 C.3    73  VAL73       0.0019
     67  N         24.1830   -1.4510   53.1360 N.3    76  LEU76      -0.1231
     68  CA        23.9970   -0.5470   52.0070 C.3    76  LEU76       0.1693
     69  C         25.0580    0.5490   51.9640 C.2    76  LEU76       0.2591
     70  O         25.1170    1.3390   51.0270 O.2    76  LEU76      -0.2718
     71  CB        22.5990    0.0720   52.0370 C.3    76  LEU76       0.0284
     72  CG        21.4090   -0.8020   51.6320 C.3    76  LEU76       0.0019
     73  CD1       20.2190   -0.4770   52.4840 C.3    76  LEU76       0.0001
     74  CD2       21.0470   -0.6040   50.1710 C.3    76  LEU76       0.0001
     75  N         25.8710    0.6500   52.9930 N.am   77  LYS77      -0.1980
     76  CA        26.9050    1.6430   52.9430 C.3    77  LYS77       0.1596
     77  C         28.2020    0.9920   52.4350 C.2    77  LYS77       0.2287
     78  O         29.0700    1.6780   51.9150 O.2    77  LYS77      -0.2864
     79  CB        27.0550    2.3710   54.2860 C.3    77  LYS77       0.0298
     80  CG        25.9870    3.4040   54.5490 C.3    77  LYS77       0.0038
     81  CD        26.1230    4.5620   53.5860 C.3    77  LYS77       0.0206
     82  CE        24.9860    5.5450   53.7400 C.3    77  LYS77       0.1093
     83  NZ        23.6890    4.9080   53.3980 N.3    77  LYS77      -0.1314
@<TRIPOS>BOND
     1     4     3    2
     2     1     2    1
     3     3     2    1
     4     2     5    1
     5    18    17    1
     6     5     6    1
     7    17    16    1
     8    22    21    2
     9    26    25    2
    10    10    11    1
    11     6     7    1
    12    30    28    1
    13    15    16    1
    14    15    14    1
    15    25    24    1
    16    25    31   am
    17    21    20    1
    18    21    23   am
    19    24    23    1
    20    24    27    1
    21    14    11    1
    22    19    20    1
    23    19    12   am
    24    11    12    1
    25    34    33    2
    26    28    27    1
    27    28    29    1
    28     7     8    1
    29    32    31    1
    30    32    33    1
    31     8     9    1
    32    12    13    2
    33    33    35   am
    34    44    42   ar
    35    44    45   ar
    36    42    40   ar
    37    45    43   ar
    38    35    36    1
    39    40    39    1
    40    40    41   ar
    41    39    36    1
    42    36    37    1
    43    43    41   ar
    44    74    72    1
    45    37    38    2
    46    37    46   am
    47    70    69    2
    48    46    47    1
    49    72    71    1
    50    72    73    1
    51    78    77    2
    52    69    68    1
    53    69    75   am
    54    68    71    1
    55    68    67    1
    56    77    76    1
    57    49    48    2
    58    47    48    1
    59    47    50    1
    60    76    75    1
    61    76    79    1
    62    58    56    1
    63    48    52   am
    64    83    82    1
    65    51    50    1
    66    81    82    1
    67    81    80    1
    68    52    53    1
    69    79    80    1
    70    56    53    1
    71    56    57    1
    72    53    54    1
    73    57    59    1
    74    63    62    2
    75    54    55    2
    76    62    61    1
    77    61    60    1
    78    61    64    1
    79    66    64    1
    80    65    64    1
