@<TRIPOS>MOLECULE
tmp/2g2rB00.pdb
 116 111 0 0 0
SMALL
GASTEIGER

@<TRIPOS>ATOM
      1  N        -56.2100   20.6640   17.8010 N.3    33  TYR33      -0.1241
      2  CA       -55.1110   20.0910   17.0450 C.3    33  TYR33       0.1605
      3  C        -54.1790   19.4250   18.0430 C.2    33  TYR33       0.2264
      4  O        -53.9760   19.9280   19.1500 O.2    33  TYR33      -0.2867
      5  CB       -54.3400   21.1710   16.2820 C.3    33  TYR33       0.0534
      6  CG       -55.1680   22.0380   15.3760 C.ar   33  TYR33      -0.0201
      7  CD1      -55.9520   21.4880   14.3610 C.ar   33  TYR33      -0.0009
      8  CD2      -55.1460   23.4090   15.5120 C.ar   33  TYR33      -0.0009
      9  CE1      -56.7110   22.2950   13.5250 C.ar   33  TYR33       0.0417
     10  CE2      -55.8940   24.2170   14.6930 C.ar   33  TYR33       0.0417
     11  CZ       -56.6750   23.6600   13.7080 C.ar   33  TYR33       0.1957
     12  OH       -57.4080   24.4960   12.9070 O.3    33  TYR33      -0.2866
     13  N        -50.3870   18.6590   18.7460 N.3    35  ASN35      -0.1240
     14  CA       -48.9640   18.8650   18.4600 C.3    35  ASN35       0.1653
     15  C        -48.1140   17.7900   19.1210 C.2    35  ASN35       0.2266
     16  O        -48.5090   17.2240   20.1360 O.2    35  ASN35      -0.2867
     17  CB       -48.4910   20.2300   18.9570 C.3    35  ASN35       0.1155
     18  CG       -49.3100   21.3810   18.4000 C.2    35  ASN35       0.2627
     19  OD1      -48.9840   21.9460   17.3560 O.2    35  ASN35      -0.2716
     20  ND2      -50.3800   21.7370   19.1010 N.am   35  ASN35      -0.0877
     21  N        -44.0380   17.4560   20.5430 N.3    37  MET37      -0.1245
     22  CA       -42.8190   18.1650   20.8200 C.3    37  MET37       0.1570
     23  C        -41.7650   17.1650   21.2520 C.2    37  MET37       0.2261
     24  O        -42.0950   16.1040   21.7810 O.2    37  MET37      -0.2867
     25  CB       -43.0570   19.1480   21.9630 C.3    37  MET37       0.0387
     26  CG       -44.2740   20.0070   21.8290 C.3    37  MET37       0.0595
     27  SD       -44.0720   21.3070   20.6080 S.3    37  MET37      -0.1393
     28  CE       -45.3960   22.4090   21.0820 C.3    37  MET37       0.0692
     29  N        -40.5500   21.4900   18.0910 N.3    47  TRP47      -0.1241
     30  CA       -41.8800   21.0930   17.6410 C.3    47  TRP47       0.1605
     31  C        -41.7400   20.1060   16.4720 C.2    47  TRP47       0.2264
     32  O        -41.0700   20.4150   15.4890 O.2    47  TRP47      -0.2867
     33  CB       -42.6470   22.3540   17.2170 C.3    47  TRP47       0.0550
     34  CG       -43.9650   22.0890   16.5530 C.ar   47  TRP47       0.0003
     35  CD1      -45.1440   21.8000   17.1660 C.ar   47  TRP47       0.0946
     36  CD2      -44.2310   22.0960   15.1560 C.ar   47  TRP47       0.0152
     37  NE1      -46.1280   21.6160   16.2450 N.ar   47  TRP47      -0.2442
     38  CE2      -45.5990   21.7890   14.9950 C.ar   47  TRP47       0.0810
     39  CE3      -43.4470   22.3260   14.0190 C.ar   47  TRP47       0.0012
     40  CZ2      -46.2120   21.7120   13.7330 C.ar   47  TRP47       0.0191
     41  CZ3      -44.0510   22.2500   12.7610 C.ar   47  TRP47       0.0001
     42  CH2      -45.4210   21.9450   12.6280 C.ar   47  TRP47       0.0015
     43  N        -47.9970   18.6140   13.7280 N.3    50  VAL50      -0.1245
     44  CA       -49.3340   18.7230   14.2870 C.3    50  VAL50       0.1561
     45  C        -50.3260   17.9360   13.4390 C.2    50  VAL50       0.2260
     46  O        -50.2050   17.8720   12.2090 O.2    50  VAL50      -0.2867
     47  CB       -49.7900   20.1980   14.4170 C.3    50  VAL50       0.0252
     48  CG1      -50.0560   20.8240   13.0570 C.3    50  VAL50       0.0019
     49  CG2      -51.0410   20.2840   15.2560 C.3    50  VAL50       0.0019
     50  N        -54.6050   17.5120   12.7410 N.3    52  ASN52      -0.1240
     51  CA       -55.9740   17.9170   12.9800 C.3    52  ASN52       0.1653
     52  C        -56.8620   16.6610   13.0730 C.2    52  ASN52       0.2266
     53  O        -57.2550   16.0880   12.0370 O.2    52  ASN52      -0.2867
     54  CB       -56.4420   18.8510   11.8670 C.3    52  ASN52       0.1155
     55  CG       -57.9110   19.2750   12.0130 C.2    52  ASN52       0.2627
     56  OD1      -58.5700   19.0150   13.0220 O.2    52  ASN52      -0.2716
     57  ND2      -58.4200   19.9400   10.9930 N.am   52  ASN52      -0.0877
     58  N        -49.4110   18.3470    9.5310 N.3    59  THR59      -0.1218
     59  CA       -48.3330   19.1740    9.0210 C.3    59  THR59       0.1862
     60  C        -47.0470   18.8630    9.8130 C.2    59  THR59       0.2287
     61  O        -47.0480   18.8580   11.0550 O.2    59  THR59      -0.2866
     62  CB       -48.6820   20.6760    9.0470 C.3    59  THR59       0.1770
     63  OG1      -49.9030   20.9000    8.3230 O.3    59  THR59      -0.2211
     64  CG2      -47.5690   21.5010    8.4020 C.3    59  THR59       0.0375
     65  N        -49.1550   17.7000   22.9140 N.3    97  VAL97      -0.1245
     66  CA       -49.5560   19.0530   23.3120 C.3    97  VAL97       0.1561
     67  C        -50.7750   19.5320   22.4900 C.2    97  VAL97       0.2260
     68  O        -50.6150   20.1210   21.4080 O.2    97  VAL97      -0.2867
     69  CB       -48.3590   20.0450   23.1350 C.3    97  VAL97       0.0252
     70  CG1      -48.7730   21.4720   23.4320 C.3    97  VAL97       0.0019
     71  CG2      -47.2000   19.6520   24.0110 C.3    97  VAL97       0.0019
     72  N        -53.8520   21.7880   21.2470 N.3    99  TYR99      -0.1241
     73  CA       -54.0860   23.2280   21.1650 C.3    99  TYR99       0.1605
     74  C        -55.5060   23.5240   20.7480 C.2    99  TYR99       0.2264
     75  O        -55.9140   23.1730   19.6550 O.2    99  TYR99      -0.2867
     76  CB       -53.1310   23.8920   20.1830 C.3    99  TYR99       0.0534
     77  CG       -53.4620   25.3380   19.9380 C.ar   99  TYR99      -0.0201
     78  CD1      -53.3470   26.2830   20.9590 C.ar   99  TYR99      -0.0009
     79  CD2      -53.9120   25.7650   18.6950 C.ar   99  TYR99      -0.0009
     80  CE1      -53.6680   27.6200   20.7450 C.ar   99  TYR99       0.0417
     81  CE2      -54.2340   27.1120   18.4690 C.ar   99  TYR99       0.0417
     82  CZ       -54.1110   28.0290   19.4970 C.ar   99  TYR99       0.1957
     83  OH       -54.4410   29.3530   19.2770 O.3    99  TYR99      -0.2866
     84  N        -57.8520   25.9000   19.4270 N.3   101  TYR101     -0.1241
     85  CA       -57.8140   27.1670   18.6750 C.3   101  TYR101      0.1605
     86  C        -58.9800   28.1180   18.9320 C.2   101  TYR101      0.2264
     87  O        -58.7660   29.3250   18.9970 O.2   101  TYR101     -0.2867
     88  CB       -57.6310   26.9510   17.1780 C.3   101  TYR101      0.0534
     89  CG       -58.5400   25.9190   16.5850 C.ar  101  TYR101     -0.0201
     90  CD1      -58.2580   24.5520   16.7290 C.ar  101  TYR101     -0.0009
     91  CD2      -59.6800   26.3030   15.8590 C.ar  101  TYR101     -0.0009
     92  CE1      -59.0830   23.5860   16.1530 C.ar  101  TYR101      0.0417
     93  CE2      -60.5320   25.3480   15.2880 C.ar  101  TYR101      0.0417
     94  CZ       -60.2230   23.9910   15.4380 C.ar  101  TYR101      0.1957
     95  OH       -61.0420   23.0310   14.8850 O.3   101  TYR101     -0.2866
     96  N        -53.6080   25.9230   25.5970 N.3   106  VAL106     -0.1245
     97  CA       -52.6900   24.8350   25.2780 C.3   106  VAL106      0.1561
     98  C        -52.4040   24.0030   26.5300 C.2   106  VAL106      0.2260
     99  O        -52.3840   24.5340   27.6430 O.2   106  VAL106     -0.2867
    100  CB       -51.3890   25.3900   24.6530 C.3   106  VAL106      0.0252
    101  CG1      -50.5370   26.1140   25.6980 C.3   106  VAL106      0.0019
    102  CG2      -50.6050   24.2920   23.9730 C.3   106  VAL106      0.0019
    103  N        -49.9950   20.5070   28.0900 N.3   108  TRP108     -0.1241
    104  CA       -48.9080   19.5590   27.8660 C.3   108  TRP108      0.1605
    105  C        -49.0600   18.2310   28.6190 C.2   108  TRP108      0.2264
    106  O        -49.3980   18.2080   29.8010 O.2   108  TRP108     -0.2867
    107  CB       -47.5950   20.1830   28.2730 C.3   108  TRP108      0.0550
    108  CG       -47.0760   21.2630   27.3490 C.ar  108  TRP108      0.0003
    109  CD1      -47.6590   22.4650   27.0870 C.ar  108  TRP108      0.0946
    110  CD2      -45.8380   21.2460   26.6150 C.ar  108  TRP108      0.0152
    111  NE1      -46.8730   23.1890   26.2260 N.ar  108  TRP108     -0.2442
    112  CE2      -45.7520   22.4630   25.9210 C.ar  108  TRP108      0.0810
    113  CE3      -44.8040   20.3120   26.4710 C.ar  108  TRP108      0.0012
    114  CZ2      -44.6700   22.7790   25.0900 C.ar  108  TRP108      0.0191
    115  CZ3      -43.7300   20.6240   25.6450 C.ar  108  TRP108      0.0001
    116  CH2      -43.6700   21.8530   24.9670 C.ar  108  TRP108      0.0015
@<TRIPOS>BOND
     1    63    62    1
     2    64    62    1
     3    59    62    1
     4    59    58    1
     5    59    60    1
     6    60    61    2
     7    57    55   am
     8    54    55    1
     9    54    51    1
    10    55    56    2
    11    53    52    2
    12    46    45    2
    13    42    41   ar
    14    42    40   ar
    15    50    51    1
    16    41    39   ar
    17    12    11    1
    18    51    52    1
    19    48    47    1
    20    45    44    1
    21     9    11   ar
    22     9     7   ar
    23    11    10   ar
    24    43    44    1
    25    40    38   ar
    26    39    36   ar
    27    44    47    1
    28     7     6   ar
    29    47    49    1
    30    10     8   ar
    31    95    94    1
    32    38    36   ar
    33    38    37   ar
    34    36    34   ar
    35    93    94   ar
    36    93    91   ar
    37     6     8   ar
    38     6     5    1
    39    94    92   ar
    40    32    31    2
    41    91    89   ar
    42    92    90   ar
    43    37    35   ar
    44     5     2    1
    45    31    30    1
    46    34    35   ar
    47    34    33    1
    48    89    90   ar
    49    89    88    1
    50     2     1    1
    51     2     3    1
    52    88    85    1
    53    33    30    1
    54    19    18    2
    55    30    29    1
    56     3     4    2
    57    18    17    1
    58    18    20   am
    59    14    13    1
    60    14    17    1
    61    14    15    1
    62    81    79   ar
    63    81    82   ar
    64    85    86    1
    65    85    84    1
    66    79    77   ar
    67    86    87    2
    68    15    16    2
    69    83    82    1
    70    82    80   ar
    71    75    74    2
    72    77    76    1
    73    77    78   ar
    74    76    73    1
    75    21    22    1
    76    27    28    1
    77    27    26    1
    78    80    78   ar
    79    74    73    1
    80    22    23    1
    81    22    25    1
    82    73    72    1
    83    23    24    2
    84    68    67    2
    85    26    25    1
    86    67    66    1
    87    65    66    1
    88    69    66    1
    89    69    70    1
    90    69    71    1
    91   102   100    1
    92   100    97    1
    93   100   101    1
    94   116   114   ar
    95   116   115   ar
    96   114   112   ar
    97    97    96    1
    98    97    98    1
    99   115   113   ar
   100   112   111   ar
   101   112   110   ar
   102   111   109   ar
   103   113   110   ar
   104    98    99    2
   105   110   108   ar
   106   109   108   ar
   107   108   107    1
   108   104   103    1
   109   104   107    1
   110   104   105    1
   111   105   106    2
