@<TRIPOS>MOLECULE
tmp/2g2yA00.pdb
 89 84 0 0 0
SMALL
GASTEIGER

@<TRIPOS>ATOM
      1  N         70.4350   25.3580   20.5940 N.3     8  GLY8       -0.1210
      2  CA        70.9770   26.0200   21.7600 C.3     8  GLY8        0.1956
      3  C         72.3620   26.5240   21.5030 C.2     8  GLY8        0.2611
      4  O         72.8390   26.6320   20.3760 O.2     8  GLY8       -0.2717
      5  N         73.0970   26.8990   22.6170 N.am    9  GLN9       -0.1979
      6  CA        74.3940   27.5770   22.5010 C.3     9  GLN9        0.1601
      7  C         75.4070   26.7230   21.7990 C.2     9  GLN9        0.2287
      8  O         75.6390   25.5570   22.1080 O.2     9  GLN9       -0.2864
      9  CB        74.8740   28.0580   23.8680 C.3     9  GLN9        0.0394
     10  CG        75.9710   29.1120   23.7130 C.3     9  GLN9        0.0908
     11  CD        76.1700   29.8510   25.0000 C.2     9  GLN9        0.2608
     12  OE1       75.2850   29.9530   25.8490 O.2     9  GLN9       -0.2717
     13  NE2       77.4050   30.4510   25.2050 N.am    9  GLN9       -0.0878
     14  N         72.8700   33.9770   24.2560 N.3    61  GLN61      -0.1245
     15  CA        71.5570   33.4030   24.5030 C.3    61  GLN61       0.1566
     16  C         70.4550   34.2720   23.8990 C.2    61  GLN61       0.2260
     17  O         69.6250   33.7840   23.1310 O.2    61  GLN61      -0.2867
     18  CB        71.3500   33.1530   25.9980 C.3    61  GLN61       0.0367
     19  CG        72.2570   32.0120   26.5220 C.3    61  GLN61       0.0905
     20  CD        71.9580   31.6200   27.9550 C.2    61  GLN61       0.2608
     21  OE1       70.7940   31.5650   28.3600 O.2    61  GLN61      -0.2717
     22  NE2       73.0060   31.3610   28.7320 N.am   61  GLN61      -0.0878
     23  N         66.4670   22.8130   22.6080 N.3    89  HIS89      -0.1226
     24  CA        67.6280   22.2620   23.3080 C.3    89  HIS89       0.1752
     25  C         68.3070   23.3150   24.1760 C.2    89  HIS89       0.2597
     26  O         68.9540   24.2200   23.6630 O.2    89  HIS89      -0.2718
     27  CB        68.6250   21.7500   22.2860 C.3    89  HIS89       0.0759
     28  CG        69.6550   20.8230   22.8430 C.ar   89  HIS89       0.0818
     29  ND1       70.5480   21.2010   23.8220 N.ar   89  HIS89      -0.2268
     30  CD2       69.9620   19.5420   22.5220 C.ar   89  HIS89       0.1154
     31  CE1       71.3500   20.1850   24.0900 C.ar   89  HIS89       0.1986
     32  NE2       71.0220   19.1700   23.3070 N.ar   89  HIS89      -0.2212
     33  N         68.1440   23.1860   25.4900 N.am   90  SER90      -0.1938
     34  CA        68.7470   24.1020   26.4520 C.3    90  SER90       0.2055
     35  C         68.2130   25.5200   26.2940 C.2    90  SER90       0.2642
     36  O         67.0590   25.7890   26.6280 O.2    90  SER90      -0.2714
     37  CB        70.2700   24.0780   26.3440 C.3    90  SER90       0.2130
     38  OG        70.7390   22.7510   26.1070 O.3    90  SER90      -0.2179
     39  N         69.0470   26.4370   25.8040 N.am   91  LEU91      -0.1977
     40  CA        68.5790   27.8010   25.5650 C.3    91  LEU91       0.1596
     41  C         67.3290   27.7310   24.6960 C.2    91  LEU91       0.2287
     42  O         66.3730   28.4650   24.9020 O.2    91  LEU91      -0.2864
     43  CB        69.6740   28.6360   24.9060 C.3    91  LEU91       0.0297
     44  CG        69.3630   30.0530   24.4130 C.3    91  LEU91       0.0022
     45  CD1       68.5570   30.0340   23.1140 C.3    91  LEU91       0.0001
     46  CD2       68.6460   30.8750   25.4890 C.3    91  LEU91       0.0001
     47  N         69.9330   34.8060   32.7720 N.3   115  ARG115     -0.1245
     48  CA        70.3240   33.4010   32.7740 C.3   115  ARG115      0.1563
     49  C         71.7900   33.2380   32.4300 C.2   115  ARG115      0.2260
     50  O         72.5350   32.5790   33.1490 O.2   115  ARG115     -0.2867
     51  CB        69.4730   32.6330   31.7660 C.3   115  ARG115      0.0307
     52  CG        69.5680   31.1140   31.8270 C.3   115  ARG115      0.0489
     53  CD        68.5790   30.4730   30.8700 C.3   115  ARG115      0.2205
     54  NE        68.6220   29.0220   30.8090 N.pl3 115  ARG115     -0.0865
     55  CZ        69.4350   28.3310   30.0330 C.cat 115  ARG115      0.5346
     56  NH1       70.3170   28.9540   29.2720 N.pl3 115  ARG115      0.1354
     57  NH2       69.3720   27.0090   30.0220 N.pl3 115  ARG115      0.1354
     58  N         74.7530   31.9320   34.9130 N.3   119  MET119     -0.1245
     59  CA        75.5000   30.7380   34.5570 C.3   119  MET119      0.1570
     60  C         76.9920   31.0430   34.5800 C.2   119  MET119      0.2261
     61  O         77.7720   30.2910   35.1550 O.2   119  MET119     -0.2867
     62  CB        75.0770   30.2130   33.1800 C.3   119  MET119      0.0387
     63  CG        73.7390   29.4920   33.2030 C.3   119  MET119      0.0595
     64  SD        72.9660   29.3010   31.5870 S.3   119  MET119     -0.1393
     65  CE        74.1170   28.1660   30.7870 C.3   119  MET119      0.0692
     66  N         74.0880   16.5240   28.5090 N.3   158  ASN158     -0.1240
     67  CA        73.2820   16.4570   27.2890 C.3   158  ASN158      0.1653
     68  C         73.1950   15.0220   26.7900 C.2   158  ASN158      0.2266
     69  O         74.2090   14.4170   26.4520 O.2   158  ASN158     -0.2867
     70  CB        73.9070   17.3030   26.1740 C.3   158  ASN158      0.1155
     71  CG        73.9220   18.8030   26.4790 C.2   158  ASN158      0.2627
     72  OD1       73.3680   19.2800   27.4760 O.2   158  ASN158     -0.2716
     73  ND2       74.5660   19.5500   25.6040 N.am  158  ASN158     -0.0877
     74  N         77.2810   23.6950   32.2910 N.3   198  SER198     -0.1202
     75  CA        75.8380   23.8040   32.4300 C.3   198  SER198      0.2020
     76  C         75.2080   22.4240   32.6360 C.2   198  SER198      0.2618
     77  O         75.8030   21.3970   32.2900 O.2   198  SER198     -0.2717
     78  CB        75.2370   24.5110   31.2230 C.3   198  SER198      0.2103
     79  OG        75.6710   23.9170   30.0280 O.3   198  SER198     -0.2182
     80  N         74.0210   22.4190   33.2400 N.am  199  HIS199     -0.1975
     81  CA        73.1480   21.2350   33.3030 C.3   199  HIS199      0.1656
     82  C         73.6900   20.1130   34.1910 C.2   199  HIS199      0.2291
     83  O         73.3130   18.9510   34.0330 O.2   199  HIS199     -0.2864
     84  CB        72.8500   20.7190   31.8940 C.3   199  HIS199      0.0771
     85  CG        72.1230   21.7180   31.0600 C.ar  199  HIS199      0.0820
     86  ND1       70.9000   22.2310   31.4310 N.ar  199  HIS199     -0.2267
     87  CD2       72.4670   22.3480   29.9140 C.ar  199  HIS199      0.1154
     88  CE1       70.5090   23.1180   30.5340 C.ar  199  HIS199      0.1986
     89  NE2       71.4460   23.2140   29.6090 N.ar  199  HIS199     -0.2212
@<TRIPOS>BOND
     1     4     3    2
     2     1     2    1
     3     3     2    1
     4     3     5   am
     5     7     8    2
     6     7     6    1
     7    27    28    1
     8    27    24    1
     9     6     5    1
    10     6     9    1
    11    30    28   ar
    12    30    32   ar
    13    23    24    1
    14    28    29   ar
    15    45    44    1
    16    17    16    2
    17    32    31   ar
    18    24    25    1
    19    26    25    2
    20    10     9    1
    21    10    11    1
    22    29    31   ar
    23    16    15    1
    24    25    33   am
    25    14    15    1
    26    44    43    1
    27    44    46    1
    28    15    18    1
    29    41    42    2
    30    41    40    1
    31    43    40    1
    32    11    13   am
    33    11    12    2
    34    33    34    1
    35    40    39    1
    36    73    71   am
    37    39    35   am
    38    18    19    1
    39    38    37    1
    40    70    71    1
    41    70    67    1
    42    35    34    1
    43    35    36    2
    44    37    34    1
    45    69    68    2
    46    71    72    2
    47    19    20    1
    48    68    67    1
    49    67    66    1
    50    20    21    2
    51    20    22   am
    52    56    55    1
    53    89    87   ar
    54    89    88   ar
    55    87    85   ar
    56    57    55    1
    57    79    78    1
    58    55    54    2
    59    88    86   ar
    60    65    64    1
    61    54    53    1
    62    53    52    1
    63    85    86   ar
    64    85    84    1
    65    78    75    1
    66    64    63    1
    67    51    52    1
    68    51    48    1
    69    84    81    1
    70    77    76    2
    71    74    75    1
    72    49    48    1
    73    49    50    2
    74    75    76    1
    75    76    80   am
    76    47    48    1
    77    62    63    1
    78    62    59    1
    79    80    81    1
    80    81    82    1
    81    83    82    2
    82    59    60    1
    83    59    58    1
    84    60    61    2
