@<TRIPOS>MOLECULE
tmp/2g2zA00.pdb
 202 192 0 0 0
SMALL
GASTEIGER

@<TRIPOS>ATOM
      1  N         72.9630   27.1850   23.0900 N.3     9  GLN9       -0.1231
      2  CA        74.3910   27.5080   23.0590 C.3     9  GLN9        0.1698
      3  C         75.1330   26.5190   22.1790 C.2     9  GLN9        0.2592
      4  O         74.8380   25.3330   22.1900 O.2     9  GLN9       -0.2718
      5  CB        74.9890   27.5110   24.4530 C.3     9  GLN9        0.0381
      6  CG        76.2940   28.2590   24.5350 C.3     9  GLN9        0.0905
      7  CD        76.1320   29.6920   25.0040 C.2     9  GLN9        0.2608
      8  OE1       76.7880   30.5870   24.4730 O.2     9  GLN9       -0.2717
      9  NE2       75.2730   29.9140   26.0110 N.am    9  GLN9       -0.0878
     10  N         76.0790   27.0330   21.4010 N.am   10  GLY10      -0.1957
     11  CA        76.8080   26.2360   20.4350 C.3    10  GLY10       0.1869
     12  C         76.4800   26.6180   19.0030 C.2    10  GLY10       0.2309
     13  O         77.2850   26.4370   18.0920 O.2    10  GLY10      -0.2863
     14  N         66.3980   23.1270   22.6770 N.3    89  HIS89      -0.1226
     15  CA        67.4840   22.5430   23.4020 C.3    89  HIS89       0.1752
     16  C         68.0980   23.5800   24.3220 C.2    89  HIS89       0.2596
     17  O         68.6490   24.5660   23.8620 O.2    89  HIS89      -0.2718
     18  CB        68.5100   22.0730   22.4010 C.3    89  HIS89       0.0759
     19  CG        69.5960   21.2140   22.9760 C.ar   89  HIS89       0.0818
     20  ND1       70.7840   21.7310   23.4430 N.ar   89  HIS89      -0.2268
     21  CD2       69.7030   19.8710   23.0880 C.ar   89  HIS89       0.1154
     22  CE1       71.5740   20.7440   23.8170 C.ar   89  HIS89       0.1986
     23  NE2       70.9390   19.6060   23.6200 N.ar   89  HIS89      -0.2212
     24  N         67.9950   23.3530   25.6270 N.am   90  SER90      -0.1952
     25  CA        68.5450   24.2830   26.5880 C.3    90  SER90       0.1924
     26  C         67.8940   25.6420   26.3480 C.2    90  SER90       0.2314
     27  O         66.7080   25.8040   26.5920 O.2    90  SER90      -0.2863
     28  CB        70.0590   24.3270   26.4240 C.3    90  SER90       0.2116
     29  OG        70.6810   25.1380   27.4040 O.3    90  SER90      -0.2180
     30  N         82.7730   21.2430   30.2450 N.3   130  MET130     -0.1245
     31  CA        81.8380   20.3610   29.5950 C.3   130  MET130      0.1570
     32  C         82.6320   19.5390   28.6070 C.2   130  MET130      0.2261
     33  O         83.5980   20.0180   28.0580 O.2   130  MET130     -0.2867
     34  CB        80.8120   21.1630   28.8310 C.3   130  MET130      0.0387
     35  CG        80.0090   22.0850   29.6700 C.3   130  MET130      0.0595
     36  SD        78.6470   22.7560   28.7220 S.3   130  MET130     -0.1393
     37  CE        77.3390   22.4810   29.8450 C.3   130  MET130      0.0692
     38  N         82.0750   16.3130   25.4380 N.3   132  ALA132     -0.1245
     39  CA        81.1370   15.5430   24.6480 C.3   132  ALA132      0.1562
     40  C         81.6200   14.1210   24.4890 C.2   132  ALA132      0.2260
     41  O         82.6540   13.8800   23.8840 O.2   132  ALA132     -0.2867
     42  CB        80.9480   16.1720   23.3060 C.3   132  ALA132      0.0290
     43  N         81.5090   10.7790   22.8400 N.3   134  ILE134     -0.1231
     44  CA        81.0290   10.1760   21.6210 C.3   134  ILE134      0.1692
     45  C         81.1640    8.7210   21.8510 C.2   134  ILE134      0.2592
     46  O         82.2590    8.2430   22.1110 O.2   134  ILE134     -0.2718
     47  CB        81.8880   10.5960   20.4220 C.3   134  ILE134      0.0266
     48  CG1       81.7620   12.1000   20.1940 C.3   134  ILE134      0.0019
     49  CG2       81.4730    9.8200   19.1780 C.3   134  ILE134      0.0020
     50  CD1       80.3780   12.6000   20.4470 C.3   134  ILE134      0.0001
     51  N         80.0440    8.0140   21.7870 N.am  135  GLY135     -0.1957
     52  CA        80.0710    6.5920   21.5240 C.3   135  GLY135      0.1869
     53  C         79.9960    5.6500   22.7180 C.2   135  GLY135      0.2309
     54  O         80.4080    4.5050   22.6080 O.2   135  GLY135     -0.2863
     55  N         73.7460   16.6770   28.8450 N.3   158  ASN158     -0.1240
     56  CA        73.0530   16.7140   27.5640 C.3   158  ASN158      0.1653
     57  C         72.9360   15.3140   26.9750 C.2   158  ASN158      0.2266
     58  O         73.9270   14.6970   26.5730 O.2   158  ASN158     -0.2867
     59  CB        73.7760   17.6480   26.5940 C.3   158  ASN158      0.1155
     60  CG        73.4850   19.1170   26.8700 C.2   158  ASN158      0.2627
     61  OD1       72.8250   19.4600   27.8460 O.2   158  ASN158     -0.2716
     62  ND2       73.9750   19.9850   26.0050 N.am  158  ASN158     -0.0877
     63  N         71.9070   14.0880   23.9610 N.3   160  ASN160     -0.1225
     64  CA        71.6890   14.6610   22.6400 C.3   160  ASN160      0.1785
     65  C         71.2540   13.6000   21.6310 C.2   160  ASN160      0.2598
     66  O         70.2120   13.7300   21.0140 O.2   160  ASN160     -0.2718
     67  CB        72.9530   15.3590   22.1390 C.3   160  ASN160      0.1169
     68  CG        73.2210   16.6880   22.8470 C.2   160  ASN160      0.2627
     69  OD1       72.3640   17.2170   23.5720 O.2   160  ASN160     -0.2716
     70  ND2       74.4240   17.2360   22.6380 N.am  160  ASN160     -0.0877
     71  N         72.0480   12.5480   21.4620 N.am  161  SER161     -0.1938
     72  CA        71.5010   11.2500   21.0600 C.3   161  SER161      0.2040
     73  C         72.2530   10.0980   21.6770 C.2   161  SER161      0.2485
     74  O         73.2210   10.2740   22.4020 O.2   161  SER161     -0.2729
     75  CB        71.5250   11.0670   19.5390 C.3   161  SER161      0.2129
     76  OG        72.8470   11.1620   19.0360 O.3   161  SER161     -0.2179
     77  N         71.8000    8.9100   21.3190 N.am  162  PRO162     -0.2715
     78  CA        72.5250    7.6700   21.5890 C.3   162  PRO162      0.1536
     79  C         73.8960    7.7890   21.0090 C.2   162  PRO162      0.2599
     80  O         74.0610    8.0860   19.8260 O.2   162  PRO162     -0.2715
     81  CB        71.7360    6.6170   20.8290 C.3   162  PRO162      0.0310
     82  CG        70.3890    7.2110   20.5640 C.3   162  PRO162      0.0237
     83  CD        70.5560    8.6960   20.5600 C.3   162  PRO162      0.0939
     84  N         74.8840    7.6190   21.8620 N.am  163  GLY163     -0.1941
     85  CA        76.2530    7.8780   21.5060 C.3   163  GLY163      0.2014
     86  C         76.5250    9.3150   21.2000 C.2   163  GLY163      0.2638
     87  O         77.5080    9.6050   20.5240 O.2   163  GLY163     -0.2714
     88  N         75.7010   10.2320   21.6990 N.am  164  GLN164     -0.1977
     89  CA        76.2300   11.5510   22.0660 C.3   164  GLN164      0.1601
     90  C         75.6250   12.0570   23.3540 C.2   164  GLN164      0.2287
     91  O         74.4370   12.3960   23.4100 O.2   164  GLN164     -0.2864
     92  CB        76.0320   12.6110   20.9640 C.3   164  GLN164      0.0394
     93  CG        76.1940   14.0740   21.4890 C.3   164  GLN164      0.0908
     94  CD        76.1630   15.1570   20.3930 C.2   164  GLN164      0.2608
     95  OE1       76.1460   16.4040   20.6770 O.2   164  GLN164     -0.2717
     96  NE2       76.1580   14.6890   19.1400 N.am  164  GLN164     -0.0878
     97  N         76.6110   14.9260   26.5900 N.3   166  VAL166     -0.1245
     98  CA        77.5040   15.9130   27.2300 C.3   166  VAL166      0.1561
     99  C         77.5420   15.7810   28.7670 C.2   166  VAL166      0.2260
    100  O         76.5180   15.5320   29.3900 O.2   166  VAL166     -0.2867
    101  CB        77.1490   17.3820   26.8740 C.3   166  VAL166      0.0252
    102  CG1       77.9610   18.3220   27.7250 C.3   166  VAL166      0.0019
    103  CG2       77.4450   17.6860   25.4410 C.3   166  VAL166      0.0019
    104  N         84.4020    6.3690   21.8750 N.3   187  LYS187     -0.1231
    105  CA        85.2240    6.7410   20.7310 C.3   187  LYS187      0.1693
    106  C         86.0310    7.9720   21.0750 C.2   187  LYS187      0.2591
    107  O         87.1840    8.1110   20.6740 O.2   187  LYS187     -0.2718
    108  CB        84.3620    7.0040   19.4930 C.3   187  LYS187      0.0285
    109  CG        85.1600    7.3780   18.2430 C.3   187  LYS187      0.0035
    110  CD        85.3620    6.1810   17.3080 C.3   187  LYS187      0.0206
    111  CE        86.8120    6.1140   16.7860 C.3   187  LYS187      0.1093
    112  NZ        86.9090    5.6940   15.3480 N.3   187  LYS187     -0.1314
    113  N         85.4040    8.8630   21.8270 N.am  188  ARG188     -0.1980
    114  CA        85.8330   10.2490   21.9130 C.3   188  ARG188      0.1597
    115  C         85.3100   10.8300   23.2200 C.2   188  ARG188      0.2287
    116  O         84.1230   10.7370   23.5200 O.2   188  ARG188     -0.2864
    117  CB        85.2950   11.0560   20.7240 C.3   188  ARG188      0.0334
    118  CG        86.1390   10.9780   19.4540 C.3   188  ARG188      0.0492
    119  CD        85.3580   11.2930   18.1870 C.3   188  ARG188      0.2205
    120  NE        86.1710   11.2070   16.9760 N.pl3 188  ARG188     -0.0865
    121  CZ        85.6670   11.1890   15.7480 C.cat 188  ARG188      0.5346
    122  NH1       84.3520   11.2480   15.5710 N.pl3 188  ARG188      0.1354
    123  NH2       86.4690   11.1110   14.6930 N.pl3 188  ARG188      0.1354
    124  N         85.5500   14.6210   23.6660 N.3   190  LEU190     -0.1303
    125  CA        86.0630   15.8380   23.0700 C.3   190  LEU190      0.1214
    126  C         85.7110   17.0530   23.9270 C.3   190  LEU190      0.1610
    127  O         84.5390   17.3430   24.1870 O.3   190  LEU190     -0.3522
    128  CB        85.5200   15.9890   21.6590 C.3   190  LEU190      0.0241
    129  CG        84.0140   15.8140   21.6630 C.3   190  LEU190      0.0312
    130  CD1       83.4790   16.4280   22.9620 C.3   190  LEU190      0.1422
    131  CD2       83.3840   16.4300   20.4150 C.3   190  LEU190      0.0026
    132  N         84.9590   20.5490   25.3950 N.3   192  LEU192     -0.1231
    133  CA        84.1480   21.5740   24.7960 C.3   192  LEU192      0.1678
    134  C         84.5500   22.9300   25.3240 C.2   192  LEU192      0.2434
    135  O         84.8310   23.1030   26.5080 O.2   192  LEU192     -0.2733
    136  CB        82.6710   21.2870   25.0360 C.3   192  LEU192      0.0284
    137  CG        82.2480   20.0940   24.1750 C.3   192  LEU192      0.0019
    138  CD1       81.2710   19.1820   24.8870 C.3   192  LEU192      0.0001
    139  CD2       81.6690   20.5830   22.8760 C.3   192  LEU192      0.0001
    140  N         84.5840   23.8870   24.4110 N.am  193  PRO193     -0.2718
    141  CA        85.0830   25.2340   24.6840 C.3   193  PRO193      0.1535
    142  C         83.9680   26.0780   25.2560 C.2   193  PRO193      0.2598
    143  O         83.5030   27.0240   24.6160 O.2   193  PRO193     -0.2715
    144  CB        85.4500   25.7430   23.2910 C.3   193  PRO193      0.0310
    145  CG        84.4330   25.0730   22.3810 C.3   193  PRO193      0.0237
    146  CD        84.1100   23.7400   23.0230 C.3   193  PRO193      0.0939
    147  N         83.5080   25.7160   26.4420 N.am  194  VAL194     -0.1978
    148  CA        82.5010   26.5090   27.1070 C.3   194  VAL194      0.1596
    149  C         82.9240   26.7790   28.5330 C.2   194  VAL194      0.2287
    150  O         83.5000   25.9170   29.2060 O.2   194  VAL194     -0.2864
    151  CB        81.1620   25.7910   27.0870 C.3   194  VAL194      0.0276
    152  CG1       80.2570   26.3210   28.1850 C.3   194  VAL194      0.0022
    153  CG2       80.5250   25.9440   25.7190 C.3   194  VAL194      0.0022
    154  N         73.3540   22.6570   33.6520 N.3   199  HIS199     -0.1241
    155  CA        72.4930   21.4940   33.7440 C.3   199  HIS199      0.1621
    156  C         73.0390   20.4200   34.6640 C.2   199  HIS199      0.2264
    157  O         72.5410   19.3130   34.6670 O.2   199  HIS199     -0.2867
    158  CB        72.2620   20.8990   32.3460 C.3   199  HIS199      0.0745
    159  CG        71.7900   21.9010   31.3590 C.ar  199  HIS199      0.0817
    160  ND1       72.4120   22.1010   30.1460 N.ar  199  HIS199     -0.2268
    161  CD2       70.7770   22.7940   31.4160 C.ar  199  HIS199      0.1154
    162  CE1       71.7980   23.0730   29.4920 C.ar  199  HIS199      0.1986
    163  NE2       70.8010   23.5110   30.2410 N.ar  199  HIS199     -0.2212
    164  N         72.9760   23.8370   12.0970 N.3   277  LYS277     -0.1231
    165  CA        72.3070   22.5680   11.8400 C.3   277  LYS277      0.1693
    166  C         72.3520   21.5470   12.9980 C.2   277  LYS277      0.2591
    167  O         72.3040   20.3590   12.7560 O.2   277  LYS277     -0.2718
    168  CB        72.9950   21.8750   10.6720 C.3   277  LYS277      0.0285
    169  CG        72.7820   22.4600    9.2950 C.3   277  LYS277      0.0035
    170  CD        73.8670   21.8980    8.3530 C.3   277  LYS277      0.0206
    171  CE        75.2010   21.5790    9.1260 C.3   277  LYS277      0.1093
    172  NZ        75.9670   20.3740    8.6220 N.3   277  LYS277     -0.1314
    173  N         72.4850   21.9640   14.2410 N.am  278  VAL278     -0.1980
    174  CA        72.8560   20.9920   15.2690 C.3   278  VAL278      0.1595
    175  C         71.7380   20.0130   15.5690 C.2   278  VAL278      0.2287
    176  O         71.9670   18.8040   15.5480 O.2   278  VAL278     -0.2864
    177  CB        73.2890   21.6580   16.5890 C.3   278  VAL278      0.0276
    178  CG1       73.5390   20.6250   17.6700 C.3   278  VAL278      0.0022
    179  CG2       74.5220   22.4250   16.3690 C.3   278  VAL278      0.0022
    180  N         71.3140   17.6890   12.7500 N.3   281  GLY281     -0.1210
    181  CA        72.3090   16.6400   12.6630 C.3   281  GLY281      0.1956
    182  C         71.9550   15.4520   13.5280 C.2   281  GLY281      0.2611
    183  O         72.2800   14.3200   13.1920 O.2   281  GLY281     -0.2717
    184  N         71.2900   15.7030   14.6520 N.am  282  LEU282     -0.1979
    185  CA        71.1480   14.6950   15.6750 C.3   282  LEU282      0.1596
    186  C         69.9850   13.8060   15.3180 C.2   282  LEU282      0.2287
    187  O         69.9210   12.6510   15.7470 O.2   282  LEU282     -0.2864
    188  CB        70.8700   15.3240   17.0230 C.3   282  LEU282      0.0297
    189  CG        71.9160   16.1990   17.6920 C.3   282  LEU282      0.0022
    190  CD1       71.2380   17.0050   18.7790 C.3   282  LEU282      0.0001
    191  CD2       73.0470   15.3990   18.2970 C.3   282  LEU282      0.0001
    192  N         70.0300   10.1390   14.1910 N.3   285  ARG285     -0.1245
    193  CA        70.6620    9.3370   15.2330 C.3   285  ARG285      0.1563
    194  C         69.6680    8.8960   16.2990 C.2   285  ARG285      0.2260
    195  O         69.9030    7.9160   17.0060 O.2   285  ARG285     -0.2867
    196  CB        71.7780   10.1350   15.9060 C.3   285  ARG285      0.0307
    197  CG        72.7860   10.7700   14.9480 C.3   285  ARG285      0.0489
    198  CD        74.1830   10.1580   15.0520 C.3   285  ARG285      0.2205
    199  NE        75.1780   10.8550   14.2370 N.pl3 285  ARG285     -0.0865
    200  CZ        76.3310   10.3080   13.8540 C.cat 285  ARG285      0.5346
    201  NH1       76.6170    9.0560   14.2140 N.pl3 285  ARG285      0.1354
    202  NH2       77.1940   11.0020   13.1080 N.pl3 285  ARG285      0.1354
@<TRIPOS>BOND
     1   170   171    1
     2   170   169    1
     3   172   171    1
     4   169   168    1
     5   168   165    1
     6   165   164    1
     7   165   166    1
     8   181   180    1
     9   181   182    1
    10   167   166    2
    11   166   173   am
    12   202   200    1
    13   183   182    2
    14   182   184   am
    15   200   201    1
    16   200   199    2
    17   192   193    1
    18   199   198    1
    19   173   174    1
    20   184   185    1
    21   123   121    1
    22   197   198    1
    23   197   196    1
    24   193   196    1
    25   193   194    1
    26   174   175    1
    27   174   177    1
    28   186   185    1
    29   186   187    2
    30   112   111    1
    31   176   175    2
    32   122   121    1
    33   185   188    1
    34   121   120    2
    35   194   195    2
    36   179   177    1
    37   177   178    1
    38   111   110    1
    39   120   119    1
    40   188   189    1
    41   110   109    1
    42   189   191    1
    43   189   190    1
    44    13    12    2
    45   119   118    1
    46   109   108    1
    47    12    11    1
    48    76    75    1
    49    96    94   am
    50    49    47    1
    51   118   117    1
    52   108   105    1
    53    75    72    1
    54    80    79    2
    55    48    47    1
    56    48    50    1
    57    94    95    2
    58    94    93    1
    59   131   129    1
    60    47    44    1
    61    11    10    1
    62    87    86    2
    63    83    82    1
    64    83    77    1
    65    82    81    1
    66   107   106    2
    67   117   114    1
    68   105   106    1
    69   105   104    1
    70    81    78    1
    71    92    93    1
    72    92    89    1
    73    79    78    1
    74    79    84   am
    75    66    65    2
    76    72    71    1
    77    72    73    1
    78   106   113   am
    79    86    85    1
    80    86    88   am
    81    77    78    1
    82    77    73   am
    83    10     3   am
    84    71    65   am
    85    85    84    1
    86    52    51    1
    87    52    53    1
    88    44    45    1
    89    44    43    1
    90    65    64    1
    91   128   129    1
    92   128   125    1
    93   129   130    1
    94    73    74    2
    95    88    89    1
    96    51    45   am
    97   113   114    1
    98    45    46    2
    99   114   115    1
   100    89    90    1
   101    67    64    1
   102    67    68    1
   103     3     4    2
   104     3     2    1
   105   145   146    1
   106   145   144    1
   107    18    19    1
   108    18    15    1
   109    54    53    2
   110    70    68   am
   111    64    63    1
   112    14    15    1
   113    68    69    2
   114   139   137    1
   115   130   127    1
   116    19    21   ar
   117    19    20   ar
   118   146   140    1
   119     2     1    1
   120     2     5    1
   121   125   124    1
   122   125   126    1
   123    21    23   ar
   124   115   116    2
   125   144   141    1
   126    42    39    1
   127    90    91    2
   128    15    16    1
   129    20    22   ar
   130    23    22   ar
   131    17    16    2
   132    41    40    2
   133   126   127    1
   134   137   138    1
   135   137   136    1
   136    16    24   am
   137   140   141    1
   138   140   134   am
   139     5     6    1
   140     8     7    2
   141    40    39    1
   142     6     7    1
   143   143   142    2
   144    39    38    1
   145   141   142    1
   146   133   136    1
   147   133   134    1
   148   133   132    1
   149     7     9   am
   150   142   147   am
   151   134   135    2
   152   103   101    1
   153    24    25    1
   154   153   151    1
   155    62    60   am
   156    26    25    1
   157    26    27    2
   158    28    25    1
   159    28    29    1
   160   147   148    1
   161    58    57    2
   162    97    98    1
   163    59    60    1
   164    59    56    1
   165    60    61    2
   166   101    98    1
   167   101   102    1
   168    57    56    1
   169   151   148    1
   170   151   152    1
   171   148   149    1
   172    98    99    1
   173    56    55    1
   174    33    32    2
   175   149   150    2
   176    32    31    1
   177    36    35    1
   178    36    37    1
   179    99   100    2
   180    34    31    1
   181    34    35    1
   182   162   160   ar
   183   162   163   ar
   184    31    30    1
   185   160   159   ar
   186   163   161   ar
   187   159   161   ar
   188   159   158    1
   189   158   155    1
   190   154   155    1
   191   155   156    1
   192   156   157    2
