@<TRIPOS>MOLECULE
tmp/2g35A00.pdb
 126 122 0 0 0
SMALL
GASTEIGER

@<TRIPOS>ATOM
      1  N         95.0950    3.1860    3.2310 N.3    49  LEU49      -0.1231
      2  CA        95.2050    1.7030    3.1770 C.3    49  LEU49       0.1693
      3  C         95.9980    1.2250    4.4000 C.2    49  LEU49       0.2592
      4  O         95.8870    0.0900    4.8210 O.2    49  LEU49      -0.2718
      5  CB        95.9280    1.2980    1.8680 C.3    49  LEU49       0.0284
      6  CG        94.9100    0.8020    0.8220 C.3    49  LEU49       0.0019
      7  CD1       95.5080    0.9180   -0.5860 C.3    49  LEU49       0.0001
      8  CD2       94.5540   -0.6640    1.1020 C.3    49  LEU49       0.0001
      9  N         96.7950    2.0850    4.9700 N.am   50  THR50      -0.1953
     10  CA        97.5950    1.6900    6.1600 C.3    50  THR50       0.1897
     11  C         96.7220    1.7640    7.4150 C.2    50  THR50       0.2313
     12  O         97.1400    1.4000    8.4950 O.2    50  THR50      -0.2863
     13  CB        98.7840    2.6430    6.3130 C.3    50  THR50       0.1794
     14  OG1       98.3040    3.9600    6.5480 O.3    50  THR50      -0.2208
     15  CG2       99.6240    2.6250    5.0350 C.3    50  THR50       0.0378
     16  N         93.4610    0.4220    7.5370 N.3    52  ILE52      -0.1231
     17  CA        92.6720   -0.8370    7.6270 C.3    52  ILE52       0.1692
     18  C         93.4340   -1.8610    8.4710 C.2    52  ILE52       0.2592
     19  O         94.5510   -2.2260    8.1630 O.2    52  ILE52      -0.2718
     20  CB        92.4500   -1.3980    6.2230 C.3    52  ILE52       0.0266
     21  CG1       91.6150   -0.4060    5.4060 C.3    52  ILE52       0.0019
     22  CG2       91.7120   -2.7340    6.3210 C.3    52  ILE52       0.0020
     23  CD1       91.5830   -0.8460    3.9420 C.3    52  ILE52       0.0001
     24  N         92.8370   -2.3300    9.5360 N.am   53  LYS53      -0.1966
     25  CA        93.5240   -3.3330   10.4020 C.3    53  LYS53       0.1728
     26  C         93.2090   -4.7430    9.8950 C.2    53  LYS53       0.2616
     27  O         94.0890   -5.5660    9.7330 O.2    53  LYS53      -0.2715
     28  CB        93.0250   -3.1850   11.8440 C.3    53  LYS53       0.0311
     29  CG        93.6040   -4.3110   12.7050 C.3    53  LYS53       0.0038
     30  CD        93.3640   -4.0050   14.1840 C.3    53  LYS53       0.0206
     31  CE        93.9190   -5.1500   15.0350 C.3    53  LYS53       0.1093
     32  NZ        93.9310   -4.7470   16.4690 N.3    53  LYS53      -0.1314
     33  N         91.9590   -5.0310    9.6480 N.am   54  ARG54      -0.1963
     34  CA        91.5850   -6.3900    9.1560 C.3    54  ARG54       0.1729
     35  C         90.2930   -6.3010    8.3480 C.2    54  ARG54       0.2616
     36  O         89.6880   -5.2540    8.2330 O.2    54  ARG54      -0.2715
     37  CB        91.3430   -7.3190   10.3530 C.3    54  ARG54       0.0348
     38  CG        90.3910   -6.6340   11.3580 C.3    54  ARG54       0.0492
     39  CD        89.5640   -7.6760   12.1190 C.3    54  ARG54       0.2205
     40  NE        89.0820   -7.0710   13.3950 N.pl3  54  ARG54      -0.0865
     41  CZ        88.1690   -7.6760   14.1030 C.cat  54  ARG54       0.5346
     42  NH1       87.6820   -8.8180   13.7020 N.pl3  54  ARG54       0.1354
     43  NH2       87.7410   -7.1380   15.2120 N.pl3  54  ARG54       0.1354
     44  N         89.8550   -7.4020    7.8100 N.am   55  TRP55      -0.1960
     45  CA        88.5860   -7.3980    7.0310 C.3    55  TRP55       0.1771
     46  C         88.0180   -8.8090    6.9850 C.2    55  TRP55       0.2620
     47  O         88.6530   -9.7550    7.3850 O.2    55  TRP55      -0.2715
     48  CB        88.8400   -6.9070    5.6040 C.3    55  TRP55       0.0590
     49  CG        89.9300   -7.7180    4.9770 C.ar   55  TRP55       0.0006
     50  CD1       89.7770   -8.9600    4.4600 C.ar   55  TRP55       0.0946
     51  CD2       91.3300   -7.3660    4.7850 C.ar   55  TRP55       0.0152
     52  NE1       90.9970   -9.3940    3.9690 N.ar   55  TRP55      -0.2442
     53  CE2       91.9840   -8.4450    4.1440 C.ar   55  TRP55       0.0810
     54  CE3       92.0890   -6.2270    5.1030 C.ar   55  TRP55       0.0012
     55  CZ2       93.3430   -8.3940    3.8300 C.ar   55  TRP55       0.0191
     56  CZ3       93.4560   -6.1720    4.7890 C.ar   55  TRP55       0.0001
     57  CH2       94.0820   -7.2530    4.1530 C.ar   55  TRP55       0.0015
     58  N         86.8230   -8.9560    6.4960 N.am   56  ALA56      -0.1963
     59  CA        86.2100  -10.3130    6.4050 C.3    56  ALA56       0.1728
     60  C         85.3010  -10.3450    5.1760 C.2    56  ALA56       0.2616
     61  O         84.2830   -9.6840    5.1310 O.2    56  ALA56      -0.2715
     62  CB        85.4000  -10.6040    7.6720 C.3    56  ALA56       0.0334
     63  N         85.6680  -11.0940    4.1700 N.am   57  ALA57      -0.1977
     64  CA        84.8360  -11.1540    2.9300 C.3    57  ALA57       0.1597
     65  C         83.9620  -12.4020    2.9450 C.2    57  ALA57       0.2287
     66  O         84.4380  -13.5050    3.1290 O.2    57  ALA57      -0.2864
     67  CB        85.7540  -11.2010    1.7090 C.3    57  ALA57       0.0319
     68  N         83.5740   -6.6300    5.1310 N.3    63  THR63      -0.1218
     69  CA        83.7320   -5.8400    6.3980 C.3    63  THR63       0.1862
     70  C         85.1820   -5.3760    6.5410 C.2    63  THR63       0.2287
     71  O         86.1060   -6.0710    6.1750 O.2    63  THR63      -0.2866
     72  CB        83.3610   -6.7340    7.5890 C.3    63  THR63       0.1770
     73  OG1       81.9580   -6.9600    7.5860 O.3    63  THR63      -0.2211
     74  CG2       83.7660   -6.0600    8.9060 C.3    63  THR63       0.0375
     75  N         88.0240   -2.9870    9.2490 N.3    65  ASP65      -0.1239
     76  CA        88.1950   -2.3770   10.6070 C.3    65  ASP65       0.1674
     77  C         89.3590   -1.3890   10.5730 C.2    65  ASP65       0.2266
     78  O         90.4590   -1.7220   10.1770 O.2    65  ASP65      -0.2867
     79  CB        88.4930   -3.4770   11.6340 C.3    65  ASP65       0.1410
     80  CG        87.5590   -4.6690   11.4020 C.2    65  ASP65       0.3668
     81  OD1       87.4210   -5.0790   10.2620 O.co2  65  ASP65      -0.2456
     82  OD2       87.0030   -5.1570   12.3720 O.co2  65  ASP65      -0.2456
     83  N         83.2120   -0.7090   13.2040 N.3    73  TYR73      -0.1241
     84  CA        83.5720   -1.3320   11.8980 C.3    73  TYR73       0.1605
     85  C         82.6840   -0.7670   10.7900 C.2    73  TYR73       0.2264
     86  O         81.6940   -0.1100   11.0440 O.2    73  TYR73      -0.2867
     87  CB        83.3630   -2.8450   11.9770 C.3    73  TYR73       0.0534
     88  CG        84.0190   -3.3820   13.2270 C.ar   73  TYR73      -0.0201
     89  CD1       85.4080   -3.3330   13.3540 C.ar   73  TYR73      -0.0009
     90  CD2       83.2400   -3.9280   14.2540 C.ar   73  TYR73      -0.0009
     91  CE1       86.0250   -3.8290   14.5080 C.ar   73  TYR73       0.0417
     92  CE2       83.8540   -4.4250   15.4090 C.ar   73  TYR73       0.0417
     93  CZ        85.2480   -4.3750   15.5370 C.ar   73  TYR73       0.1957
     94  OH        85.8540   -4.8640   16.6760 O.3    73  TYR73      -0.2866
     95  N         97.9030   -3.5990   -0.8630 N.3    92  ILE92      -0.1231
     96  CA        98.7230   -3.5890    0.3750 C.3    92  ILE92       0.1692
     97  C        100.0780   -4.2500    0.1100 C.2    92  ILE92       0.2592
     98  O        101.0530   -3.9840    0.7840 O.2    92  ILE92      -0.2718
     99  CB        97.9780   -4.3490    1.4680 C.3    92  ILE92       0.0266
    100  CG1       96.6340   -3.6520    1.7200 C.3    92  ILE92       0.0019
    101  CG2       98.8180   -4.3500    2.7470 C.3    92  ILE92       0.0020
    102  CD1       95.7890   -4.4730    2.6990 C.3    92  ILE92       0.0001
    103  N        100.1410   -5.1110   -0.8650 N.am   93  ASP93      -0.1974
    104  CA       101.4270   -5.8010   -1.1840 C.3    93  ASP93       0.1709
    105  C        102.2730   -4.9300   -2.1170 C.2    93  ASP93       0.2293
    106  O        103.4770   -5.0690   -2.1930 O.2    93  ASP93      -0.2864
    107  CB       101.1190   -7.1370   -1.8700 C.3    93  ASP93       0.1436
    108  CG       102.3130   -8.0860   -1.7280 C.2    93  ASP93       0.3671
    109  OD1      103.4160   -7.6710   -2.0450 O.co2  93  ASP93      -0.2456
    110  OD2      102.1030   -9.2110   -1.3040 O.co2  93  ASP93      -0.2456
    111  N        102.2890   -1.5180   -2.0390 N.3    95  ILE95      -0.1231
    112  CA       102.7740   -0.3080   -1.3140 C.3    95  ILE95       0.1692
    113  C        103.8830   -0.7200   -0.3570 C.2    95  ILE95       0.2591
    114  O        104.8220    0.0110   -0.1110 O.2    95  ILE95      -0.2718
    115  CB       101.6270    0.3070   -0.5190 C.3    95  ILE95       0.0266
    116  CG1      101.0470   -0.7400    0.4370 C.3    95  ILE95       0.0019
    117  CG2      100.5420    0.7830   -1.4840 C.3    95  ILE95       0.0020
    118  CD1       99.7890   -0.1800    1.1110 C.3    95  ILE95       0.0001
    119  N        103.7700   -1.8930    0.1860 N.am   96  LEU96      -0.1980
    120  CA       104.7980   -2.3890    1.1380 C.3    96  LEU96       0.1596
    121  C        106.0070   -2.9060    0.3500 C.2    96  LEU96       0.2287
    122  O        107.1130   -2.9580    0.8500 O.2    96  LEU96      -0.2864
    123  CB       104.1740   -3.5280    1.9650 C.3    96  LEU96       0.0297
    124  CG       103.5660   -2.9740    3.2720 C.3    96  LEU96       0.0022
    125  CD1      102.4630   -3.9150    3.7670 C.3    96  LEU96       0.0001
    126  CD2      104.6560   -2.8660    4.3480 C.3    96  LEU96       0.0001
@<TRIPOS>BOND
     1   106   105    2
     2   105   104    1
     3   109   108   ar
     4   111   112    1
     5   107   108    1
     6   107   104    1
     7   108   110   ar
     8   117   115    1
     9   112   115    1
    10   112   113    1
    11   104   103    1
    12   103    97   am
    13    95    96    1
    14     7     6    1
    15   115   116    1
    16   113   114    2
    17   113   119   am
    18    97    96    1
    19    97    98    2
    20   119   120    1
    21   121   122    2
    22   121   120    1
    23    96    99    1
    24   116   118    1
    25     6     8    1
    26     6     5    1
    27   120   123    1
    28    99   100    1
    29    99   101    1
    30    67    64    1
    31   100   102    1
    32     5     2    1
    33   123   124    1
    34    64    65    1
    35    64    63    1
    36    65    66    2
    37     2     1    1
    38     2     3    1
    39   124   125    1
    40   124   126    1
    41    55    53   ar
    42    55    57   ar
    43    23    21    1
    44    52    53   ar
    45    52    50   ar
    46    53    51   ar
    47    57    56   ar
    48    63    60   am
    49     3     4    2
    50     3     9   am
    51    50    49   ar
    52    51    49   ar
    53    51    54   ar
    54    56    54   ar
    55     9    10    1
    56    49    48    1
    57    15    13    1
    58    68    69    1
    59    61    60    2
    60    60    59    1
    61    21    20    1
    62    48    45    1
    63    10    13    1
    64    10    11    1
    65    71    70    2
    66    20    22    1
    67    20    17    1
    68    13    14    1
    69    69    70    1
    70    69    72    1
    71    59    58    1
    72    59    62    1
    73    58    46   am
    74    46    45    1
    75    46    47    2
    76    45    44    1
    77    11    12    2
    78    16    17    1
    79    73    72    1
    80    72    74    1
    81    17    18    1
    82    44    35   am
    83    19    18    2
    84    36    35    2
    85    35    34    1
    86    18    24   am
    87    34    33    1
    88    34    37    1
    89    75    76    1
    90    24    25    1
    91    33    26   am
    92    27    26    2
    93    26    25    1
    94    78    77    2
    95    81    80   ar
    96    37    38    1
    97    25    28    1
    98    77    76    1
    99    76    79    1
   100    85    86    2
   101    85    84    1
   102    38    39    1
   103    80    79    1
   104    80    82   ar
   105    28    29    1
   106    84    87    1
   107    84    83    1
   108    87    88    1
   109    39    40    1
   110    29    30    1
   111    88    89   ar
   112    88    90   ar
   113    89    91   ar
   114    40    41    2
   115    42    41    1
   116    41    43    1
   117    30    31    1
   118    90    92   ar
   119    91    93   ar
   120    31    32    1
   121    92    93   ar
   122    93    94    1
