@<TRIPOS>MOLECULE
tmp/2g36A00.pdb
 130 125 0 0 0
SMALL
GASTEIGER

@<TRIPOS>ATOM
      1  N         14.7270   59.6360   12.4750 N.3     5  LEU5       -0.1231
      2  CA        14.7910   60.1550   11.1320 C.3     5  LEU5        0.1693
      3  C         15.9390   59.5170   10.3390 C.2     5  LEU5        0.2593
      4  O         17.0400   59.3420   10.8560 O.2     5  LEU5       -0.2718
      5  CB        14.8670   61.7030   11.0960 C.3     5  LEU5        0.0284
      6  CG        14.9770   62.1500    9.6130 C.3     5  LEU5        0.0019
      7  CD1       13.9540   63.1210    9.1780 C.3     5  LEU5        0.0001
      8  CD2       16.4040   62.5270    9.2260 C.3     5  LEU5        0.0001
      9  N         15.6520   59.1380    9.0940 N.am    6  SER6       -0.1938
     10  CA        16.6760   58.6270    8.2000 C.3     6  SER6        0.2055
     11  C         16.2500   58.7090    6.7410 C.2     6  SER6        0.2644
     12  O         15.0700   58.8010    6.4390 O.2     6  SER6       -0.2714
     13  CB        17.0110   57.1890    8.5480 C.3     6  SER6        0.2130
     14  OG        18.2590   56.8710    7.9830 O.3     6  SER6       -0.2179
     15  N         17.2210   58.6770    5.8390 N.am    7  GLY7       -0.1939
     16  CA        16.9470   58.7190    4.4000 C.3     7  GLY7        0.2014
     17  C         17.9630   57.9660    3.5470 C.2     7  GLY7        0.2639
     18  O         19.0600   57.6590    3.9990 O.2     7  GLY7       -0.2714
     19  N         17.5640   57.6570    2.3200 N.am    8  MET8       -0.1963
     20  CA        18.3980   57.0100    1.3320 C.3     8  MET8        0.1736
     21  C         18.2800   57.7330    0.0030 C.2     8  MET8        0.2616
     22  O         17.1890   58.1570   -0.3910 O.2     8  MET8       -0.2715
     23  CB        17.9450   55.5810    1.0680 C.3     8  MET8        0.0427
     24  CG        18.3130   54.5650    2.1050 C.3     8  MET8        0.0599
     25  SD        18.0920   52.8910    1.4370 S.3     8  MET8       -0.1393
     26  CE        19.0280   53.0260   -0.0950 C.3     8  MET8        0.0692
     27  N         19.4050   57.8210   -0.6980 N.am    9  ARG9       -0.1977
     28  CA        19.4930   58.4250   -2.0300 C.3     9  ARG9        0.1597
     29  C         18.9900   57.4270   -3.0510 C.2     9  ARG9        0.2287
     30  O         19.3690   56.2640   -3.0090 O.2     9  ARG9       -0.2864
     31  CB        20.9550   58.7200   -2.3580 C.3     9  ARG9        0.0334
     32  CG        21.6040   59.7810   -1.4470 C.3     9  ARG9        0.0492
     33  CD        23.0640   59.4390   -1.0630 C.3     9  ARG9        0.2205
     34  NE        23.8510   58.9380   -2.1820 N.pl3   9  ARG9       -0.0865
     35  CZ        24.4210   59.7020   -3.1090 C.cat   9  ARG9        0.5346
     36  NH1       24.3070   61.0320   -3.0730 N.pl3   9  ARG9        0.1354
     37  NH2       25.1020   59.1180   -4.0880 N.pl3   9  ARG9        0.1354
     38  N         12.6890   58.7620    4.3680 N.3    39  PHE39      -0.1241
     39  CA        12.5140   59.4510    3.0870 C.3    39  PHE39       0.1605
     40  C         13.5230   59.1420    2.0310 C.2    39  PHE39       0.2264
     41  O         14.5850   58.5990    2.2980 O.2    39  PHE39      -0.2867
     42  CB        12.4740   60.9740    3.3070 C.3    39  PHE39       0.0534
     43  CG        13.7910   61.5690    3.7260 C.ar   39  PHE39      -0.0203
     44  CD1       14.2080   61.5030    5.0460 C.ar   39  PHE39      -0.0042
     45  CD2       14.6070   62.1970    2.7990 C.ar   39  PHE39      -0.0042
     46  CE1       15.4200   62.0470    5.4330 C.ar   39  PHE39      -0.0003
     47  CE2       15.8080   62.7540    3.1860 C.ar   39  PHE39      -0.0003
     48  CZ        16.2110   62.6900    4.5070 C.ar   39  PHE39      -0.0000
     49  N         16.0430   60.6050   -0.3590 N.3    41  ALA41      -0.1245
     50  CA        16.8360   61.8220   -0.4450 C.3    41  ALA41       0.1562
     51  C         17.1450   62.1810   -1.8850 C.2    41  ALA41       0.2260
     52  O         18.2980   62.1350   -2.3030 O.2    41  ALA41      -0.2867
     53  CB        18.1330   61.6560    0.3600 C.3    41  ALA41       0.0290
     54  N         19.8560   64.8810   -2.4240 N.3    44  HIS44      -0.1241
     55  CA        21.2270   64.3920   -2.2090 C.3    44  HIS44       0.1621
     56  C         21.6520   63.5840   -3.4380 C.2    44  HIS44       0.2264
     57  O         22.8320   63.5170   -3.7510 O.2    44  HIS44      -0.2867
     58  CB        21.3770   63.5710   -0.9220 C.3    44  HIS44       0.0745
     59  CG        21.2720   64.3830    0.3410 C.ar   44  HIS44       0.0817
     60  ND1       22.3480   65.0540    0.8940 N.ar   44  HIS44      -0.2268
     61  CD2       20.2190   64.6190    1.1650 C.ar   44  HIS44       0.1154
     62  CE1       21.9610   65.6670    1.9990 C.ar   44  HIS44       0.1986
     63  NE2       20.6730   65.4240    2.1830 N.ar   44  HIS44      -0.2212
     64  N         26.4700   69.6020    1.4050 N.3   123  TYR123     -0.1241
     65  CA        25.7210   68.3380    1.5380 C.3   123  TYR123      0.1605
     66  C         25.4320   68.0640    3.0090 C.2   123  TYR123      0.2264
     67  O         24.3020   67.7940    3.3850 O.2   123  TYR123     -0.2867
     68  CB        26.5800   67.2090    0.9160 C.3   123  TYR123      0.0534
     69  CG        26.0220   65.8070    0.8980 C.ar  123  TYR123     -0.0201
     70  CD1       25.9780   65.0070    2.0550 C.ar  123  TYR123     -0.0009
     71  CD2       25.6270   65.2390   -0.3080 C.ar  123  TYR123     -0.0009
     72  CE1       25.4690   63.7010    1.9940 C.ar  123  TYR123      0.0417
     73  CE2       25.1370   63.9260   -0.3860 C.ar  123  TYR123      0.0417
     74  CZ        25.0510   63.1730    0.7530 C.ar  123  TYR123      0.1957
     75  OH        24.5410   61.9060    0.6090 O.3   123  TYR123     -0.2866
     76  N         21.8970   67.8140    5.0850 N.3   127  GLN127     -0.1245
     77  CA        21.6450   66.6240    5.8890 C.3   127  GLN127      0.1566
     78  C         21.2930   66.9930    7.3410 C.2   127  GLN127      0.2260
     79  O         20.5220   66.3130    7.9840 O.2   127  GLN127     -0.2867
     80  CB        22.8430   65.6850    5.7810 C.3   127  GLN127      0.0367
     81  CG        22.7380   64.4330    6.6040 C.3   127  GLN127      0.0905
     82  CD        23.8020   63.4030    6.2230 C.2   127  GLN127      0.2608
     83  OE1       24.3030   63.3690    5.0690 O.2   127  GLN127     -0.2717
     84  NE2       24.1390   62.5320    7.1860 N.am  127  GLN127     -0.0878
     85  N         17.6050   68.1040    7.1190 N.3   130  ASP130     -0.1225
     86  CA        16.8170   66.8520    7.1340 C.3   130  ASP130      0.1805
     87  C         16.5770   66.2750    8.5390 C.2   130  ASP130      0.2597
     88  O         15.4700   65.8520    8.8700 O.2   130  ASP130     -0.2718
     89  CB        17.5760   65.7500    6.3820 C.3   130  ASP130      0.1424
     90  CG        17.7700   66.0380    4.8910 C.2   130  ASP130      0.3668
     91  OD1       16.8890   66.6740    4.2530 O.co2 130  ASP130     -0.2456
     92  OD2       18.8170   65.5860    4.3700 O.co2 130  ASP130     -0.2456
     93  N         17.6420   66.2120    9.3430 N.am  131  ILE131     -0.1980
     94  CA        17.5550   65.6600   10.6850 C.3   131  ILE131      0.1595
     95  C         16.9380   66.6240   11.6700 C.2   131  ILE131      0.2287
     96  O         16.0520   66.2420   12.4480 O.2   131  ILE131     -0.2864
     97  CB        18.9490   65.2940   11.2490 C.3   131  ILE131      0.0276
     98  CG1       19.6250   64.1940   10.4220 C.3   131  ILE131      0.0022
     99  CG2       18.8670   64.8660   12.7440 C.3   131  ILE131      0.0022
    100  CD1       21.0700   63.9910   10.8220 C.3   131  ILE131      0.0001
    101  N         19.1600   58.8380   14.8210 N.3   139  VAL139     -0.1231
    102  CA        19.3840   58.6460   13.4130 C.3   139  VAL139      0.1678
    103  C         20.1540   57.3490   13.2240 C.2   139  VAL139      0.2434
    104  O         21.3110   57.2490   13.6470 O.2   139  VAL139     -0.2733
    105  CB        20.2030   59.7880   12.8660 C.3   139  VAL139      0.0265
    106  CG1       20.5640   59.5230   11.4020 C.3   139  VAL139      0.0020
    107  CG2       19.4550   61.1120   13.0750 C.3   139  VAL139      0.0020
    108  N         19.5090   56.3240   12.6430 N.am  140  PRO140     -0.2718
    109  CA        20.2000   55.0400   12.4010 C.3   140  PRO140      0.1535
    110  C         21.2570   55.2180   11.3540 C.2   140  PRO140      0.2598
    111  O         20.9480   55.7490   10.3060 O.2   140  PRO140     -0.2715
    112  CB        19.0950   54.1410   11.8570 C.3   140  PRO140      0.0310
    113  CG        18.0960   55.0580   11.3300 C.3   140  PRO140      0.0237
    114  CD        18.1120   56.2750   12.1890 C.3   140  PRO140      0.0939
    115  N         22.4920   54.8240   11.6320 N.am  141  VAL141     -0.1978
    116  CA        23.5740   55.0040   10.6680 C.3   141  VAL141      0.1596
    117  C         24.6840   53.9750   10.8440 C.2   141  VAL141      0.2287
    118  O         24.8530   53.4110   11.9330 O.2   141  VAL141     -0.2864
    119  CB        24.2420   56.4310   10.7800 C.3   141  VAL141      0.0276
    120  CG1       23.2380   57.5410   10.5340 C.3   141  VAL141      0.0022
    121  CG2       24.9560   56.6220   12.1420 C.3   141  VAL141      0.0022
    122  N         28.8180   56.9750    8.3520 N.3   145  GLN145     -0.1245
    123  CA        28.0460   58.2320    8.4420 C.3   145  GLN145      0.1566
    124  C         28.0730   59.0140    9.7760 C.2   145  GLN145      0.2260
    125  O         27.4600   60.0660    9.8580 O.2   145  GLN145     -0.2867
    126  CB        26.5770   57.9670    8.0450 C.3   145  GLN145      0.0367
    127  CG        26.2510   58.1980    6.5580 C.3   145  GLN145      0.0905
    128  CD        26.2500   59.6880    6.1730 C.2   145  GLN145      0.2608
    129  OE1       26.7360   60.5400    6.9210 O.2   145  GLN145     -0.2717
    130  NE2       25.7090   59.9980    5.0000 N.am  145  GLN145     -0.0878
@<TRIPOS>BOND
     1    37    35    1
     2    57    56    2
     3    56    55    1
     4    35    36    1
     5    35    34    2
     6    29    30    2
     7    29    28    1
     8    54    55    1
     9    31    28    1
    10    31    32    1
    11    52    51    2
    12    55    58    1
    13    34    33    1
    14    28    27    1
    15    51    50    1
    16    32    33    1
    17    58    59    1
    18    27    21   am
    19    50    49    1
    20    50    53    1
    21    22    21    2
    22    73    71   ar
    23    73    74   ar
    24    71    69   ar
    25    26    25    1
    26    21    20    1
    27    59    60   ar
    28    59    61   ar
    29    75    74    1
    30    74    72   ar
    31    60    62   ar
    32    69    68    1
    33    69    70   ar
    34    68    65    1
    35    23    20    1
    36    23    24    1
    37    61    63   ar
    38    20    19    1
    39    64    65    1
    40    25    24    1
    41    65    66    1
    42    72    70   ar
    43    62    63   ar
    44    40    41    2
    45    40    39    1
    46    19    17   am
    47    45    47   ar
    48    45    43   ar
    49    66    67    2
    50    39    42    1
    51    39    38    1
    52    47    48   ar
    53    42    43    1
    54    17    18    2
    55    17    16    1
    56    43    44   ar
    57    91    90   ar
    58    92    90   ar
    59    16    15    1
    60    48    46   ar
    61    90    89    1
    62   130   128   am
    63    44    46   ar
    64    83    82    2
    65    76    77    1
    66    80    77    1
    67    80    81    1
    68    15    11   am
    69    77    78    1
    70   128   127    1
    71   128   129    2
    72    82    81    1
    73    82    84   am
    74    89    86    1
    75    12    11    2
    76   127   126    1
    77    11    10    1
    78    85    86    1
    79    86    87    1
    80    78    79    2
    81    14    13    1
    82   126   123    1
    83    10    13    1
    84    10     9    1
    85   122   123    1
    86   123   124    1
    87    87    88    2
    88    87    93   am
    89     9     3   am
    90     7     6    1
    91     8     6    1
    92    93    94    1
    93     6     5    1
    94   124   125    2
    95   111   110    2
    96     3     4    2
    97     3     2    1
    98    98   100    1
    99    98    97    1
   100   120   119    1
   101   116   119    1
   102   116   117    1
   103   116   115    1
   104    94    97    1
   105    94    95    1
   106   119   121    1
   107   117   118    2
   108     5     2    1
   109     2     1    1
   110    97    99    1
   111   113   112    1
   112   113   114    1
   113   110   115   am
   114   110   109    1
   115   106   105    1
   116    95    96    2
   117   112   109    1
   118   114   108    1
   119   109   108    1
   120   108   103   am
   121   105   107    1
   122   105   102    1
   123   103   102    1
   124   103   104    2
   125   102   101    1
