@<TRIPOS>MOLECULE
tmp/2g37B01.pdb
 99 95 0 0 0
SMALL
GASTEIGER

@<TRIPOS>ATOM
      1  N         42.5290   56.2170   14.9490 N.3    99  PRO99      -0.2102
      2  CA        41.8600   55.7080   13.7430 C.3    99  PRO99       0.1504
      3  C         40.7690   56.6440   13.2340 C.2    99  PRO99       0.2576
      4  O         39.9010   57.0620   13.9850 O.2    99  PRO99      -0.2718
      5  CB        41.2780   54.3680   14.1940 C.3    99  PRO99       0.0282
      6  CG        42.2240   53.9360   15.3150 C.3    99  PRO99       0.0208
      7  CD        42.6130   55.1870   16.0080 C.3    99  PRO99       0.0893
      8  N         40.8730   56.9750   11.9490 N.am  100  LYS100     -0.1966
      9  CA        40.0170   57.9280   11.2850 C.3   100  LYS100      0.1728
     10  C         39.1080   57.1220   10.3440 C.2   100  LYS100      0.2616
     11  O         39.5850   56.4530    9.4260 O.2   100  LYS100     -0.2715
     12  CB        40.8780   58.9600   10.5350 C.3   100  LYS100      0.0311
     13  CG        41.7770   59.7720   11.4800 C.3   100  LYS100      0.0038
     14  CD        42.8610   60.5310   10.7350 C.3   100  LYS100      0.0206
     15  CE        44.1740   59.7710   10.6500 C.3   100  LYS100      0.1093
     16  NZ        44.7030   59.3430   11.9730 N.3   100  LYS100     -0.1314
     17  N         37.7990   57.1970   10.5930 N.am  101  TYR101     -0.1974
     18  CA        36.8240   56.3820    9.9060 C.3   101  TYR101      0.1639
     19  C         35.5520   57.2420    9.7690 C.2   101  TYR101      0.2290
     20  O         35.0420   57.8010   10.7530 O.2   101  TYR101     -0.2864
     21  CB        36.6380   55.1020   10.7370 C.3   101  TYR101      0.0560
     22  CG        35.6770   54.0200   10.2980 C.ar  101  TYR101     -0.0198
     23  CD1       35.8670   52.7190   10.7420 C.ar  101  TYR101     -0.0009
     24  CD2       34.5620   54.2850    9.4840 C.ar  101  TYR101     -0.0009
     25  CE1       35.0040   51.6920   10.3930 C.ar  101  TYR101      0.0417
     26  CE2       33.6680   53.2650    9.1440 C.ar  101  TYR101      0.0417
     27  CZ        33.8900   51.9810    9.6090 C.ar  101  TYR101      0.1957
     28  OH        33.0340   50.9950    9.2790 O.3   101  TYR101     -0.2866
     29  N         39.6370   56.3130    6.5750 N.3   135  PHE135     -0.1241
     30  CA        38.8630   55.2390    5.9920 C.3   135  PHE135      0.1605
     31  C         37.4320   55.6990    5.6880 C.2   135  PHE135      0.2264
     32  O         36.7960   56.3940    6.5050 O.2   135  PHE135     -0.2867
     33  CB        38.8460   54.0400    6.9470 C.3   135  PHE135      0.0534
     34  CG        38.1180   52.8460    6.3930 C.ar  135  PHE135     -0.0203
     35  CD1       38.7640   51.9690    5.4870 C.ar  135  PHE135     -0.0042
     36  CD2       36.7770   52.6300    6.7090 C.ar  135  PHE135     -0.0042
     37  CE1       38.0670   50.8580    4.9600 C.ar  135  PHE135     -0.0003
     38  CE2       36.0970   51.5420    6.2110 C.ar  135  PHE135     -0.0003
     39  CZ        36.7450   50.6540    5.3240 C.ar  135  PHE135     -0.0000
     40  N         33.6220   54.3780    4.7650 N.3   137  ARG137     -0.1245
     41  CA        32.5970   53.3550    4.5720 C.3   137  ARG137      0.1563
     42  C         31.3820   53.8400    3.7350 C.2   137  ARG137      0.2260
     43  O         30.7980   54.8960    3.9930 O.2   137  ARG137     -0.2867
     44  CB        32.1140   52.8130    5.9180 C.3   137  ARG137      0.0307
     45  CG        31.1440   51.6490    5.8150 C.3   137  ARG137      0.0489
     46  CD        31.8500   50.2950    5.5860 C.3   137  ARG137      0.2205
     47  NE        32.6940   49.9260    6.7140 N.pl3 137  ARG137     -0.0865
     48  CZ        33.5980   48.9430    6.7130 C.cat 137  ARG137      0.5346
     49  NH1       33.8030   48.2120    5.6220 N.pl3 137  ARG137      0.1354
     50  NH2       34.3190   48.7020    7.7980 N.pl3 137  ARG137      0.1354
     51  N         41.3640   52.6830    0.9800 N.3   163  GLN163     -0.1245
     52  CA        40.7330   53.2120    2.1910 C.3   163  GLN163      0.1566
     53  C         39.2040   53.3580    2.0180 C.2   163  GLN163      0.2260
     54  O         38.6110   54.3750    2.3940 O.2   163  GLN163     -0.2867
     55  CB        41.3540   54.5750    2.5670 C.3   163  GLN163      0.0367
     56  CG        42.7780   54.5620    3.0980 C.3   163  GLN163      0.0905
     57  CD        42.9780   53.5950    4.2500 C.2   163  GLN163      0.2608
     58  OE1       43.8640   52.7420    4.1910 O.2   163  GLN163     -0.2717
     59  NE2       42.1510   53.7000    5.2910 N.am  163  GLN163     -0.0878
     60  N         37.0550   45.0950    2.6290 N.3   188  ASN188     -0.1240
     61  CA        36.8310   45.3730    4.0360 C.3   188  ASN188      0.1653
     62  C         35.3120   45.5230    4.2090 C.2   188  ASN188      0.2266
     63  O         34.6730   46.3810    3.5790 O.2   188  ASN188     -0.2867
     64  CB        37.6470   46.6100    4.5000 C.3   188  ASN188      0.1155
     65  CG        37.4280   46.9500    5.9760 C.2   188  ASN188      0.2627
     66  OD1       36.2960   47.1600    6.4110 O.2   188  ASN188     -0.2716
     67  ND2       38.5020   46.9750    6.7520 N.am  188  ASN188     -0.0877
     68  N         38.7190   41.0420    6.2870 N.3   227  TYR227     -0.1241
     69  CA        38.5280   41.8630    7.4810 C.3   227  TYR227      0.1605
     70  C         37.0320   42.2180    7.5920 C.2   227  TYR227      0.2264
     71  O         36.4700   42.8050    6.6730 O.2   227  TYR227     -0.2867
     72  CB        39.3840   43.1500    7.4520 C.3   227  TYR227      0.0534
     73  CG        39.3430   43.8620    8.8020 C.ar  227  TYR227     -0.0201
     74  CD1       40.4040   43.7450    9.7000 C.ar  227  TYR227     -0.0009
     75  CD2       38.1920   44.5800    9.2130 C.ar  227  TYR227     -0.0009
     76  CE1       40.3620   44.3460   10.9540 C.ar  227  TYR227      0.0417
     77  CE2       38.1350   45.1820   10.4870 C.ar  227  TYR227      0.0417
     78  CZ        39.2400   45.0640   11.3390 C.ar  227  TYR227      0.1957
     79  OH        39.2310   45.6360   12.5800 O.3   227  TYR227     -0.2866
     80  N         36.2820   43.2160   14.0120 N.3   256  GLU256     -0.1245
     81  CA        35.9360   44.1900   15.0750 C.3   256  GLU256      0.1567
     82  C         34.4310   44.1360   15.3340 C.2   256  GLU256      0.2260
     83  O         33.7030   43.4250   14.6350 O.2   256  GLU256     -0.2867
     84  CB        36.3460   45.6370   14.7160 C.3   256  GLU256      0.0388
     85  CG        35.7070   46.1640   13.3920 C.3   256  GLU256      0.1160
     86  CD        36.2720   47.4850   12.9790 C.2   256  GLU256      0.3649
     87  OE1       37.4950   47.5710   12.7830 O.co2 256  GLU256     -0.2457
     88  OE2       35.5250   48.4710   12.8520 O.co2 256  GLU256     -0.2457
     89  N         34.2490   49.9610   17.6100 N.3   279  ARG279     -0.1245
     90  CA        33.9450   51.3430   17.1650 C.3   279  ARG279      0.1563
     91  C         32.5120   51.7200   17.5490 C.2   279  ARG279      0.2260
     92  O         31.6470   50.8610   17.5720 O.2   279  ARG279     -0.2867
     93  CB        34.1400   51.5160   15.6570 C.3   279  ARG279      0.0307
     94  CG        35.4650   50.9690   15.1860 C.3   279  ARG279      0.0489
     95  CD        35.9460   51.5100   13.8750 C.3   279  ARG279      0.2205
     96  NE        37.0120   50.6030   13.4660 N.pl3 279  ARG279     -0.0865
     97  CZ        38.3130   50.7950   13.6590 C.cat 279  ARG279      0.5346
     98  NH1       38.7710   51.9190   14.1570 N.pl3 279  ARG279      0.1354
     99  NH2       39.1750   49.8440   13.3060 N.pl3 279  ARG279      0.1354
@<TRIPOS>BOND
     1    51    52    1
     2    53    52    1
     3    53    54    2
     4    52    55    1
     5    55    56    1
     6    60    61    1
     7    56    57    1
     8    63    62    2
     9    42    43    2
    10    42    41    1
    11    61    62    1
    12    61    64    1
    13    58    57    2
    14    57    59   am
    15    64    65    1
    16    41    40    1
    17    41    44    1
    18    37    39   ar
    19    37    35   ar
    20    39    38   ar
    21    35    34   ar
    22    46    45    1
    23    46    47    1
    24    49    48    1
    25    31    30    1
    26    31    32    2
    27    45    44    1
    28    65    66    2
    29    65    67   am
    30    30    29    1
    31    30    33    1
    32    38    36   ar
    33    68    69    1
    34    34    36   ar
    35    34    33    1
    36    71    70    2
    37    48    47    2
    38    48    50    1
    39    72    69    1
    40    72    73    1
    41    69    70    1
    42    73    75   ar
    43    73    74   ar
    44    26    24   ar
    45    26    27   ar
    46    75    77   ar
    47    28    27    1
    48    11    10    2
    49    24    22   ar
    50    27    25   ar
    51    74    76   ar
    52    19    18    1
    53    19    20    2
    54    18    17    1
    55    18    21    1
    56    22    21    1
    57    22    23   ar
    58    10    17   am
    59    10     9    1
    60    25    23   ar
    61    77    78   ar
    62    12     9    1
    63    12    13    1
    64    15    14    1
    65    15    16    1
    66    14    13    1
    67    76    78   ar
    68     9     8    1
    69    78    79    1
    70     8     3   am
    71    87    86   ar
    72    88    86   ar
    73    86    85    1
    74     3     2    1
    75     3     4    2
    76    99    97    1
    77    85    84    1
    78    96    97    2
    79    96    95    1
    80    97    98    1
    81     2     5    1
    82     2     1    1
    83    95    94    1
    84    80    81    1
    85     5     6    1
    86    83    82    2
    87    84    81    1
    88     1     7    1
    89    81    82    1
    90    94    93    1
    91     6     7    1
    92    93    90    1
    93    90    91    1
    94    90    89    1
    95    91    92    2
