@<TRIPOS>MOLECULE
tmp/2g37B00.pdb
 220 212 0 0 0
SMALL
GASTEIGER

@<TRIPOS>ATOM
      1  N         33.3630   56.0950   14.5250 N.3    65  ILE65      -0.1245
      2  CA        32.9860   56.2600   13.1210 C.3    65  ILE65       0.1561
      3  C         32.1750   57.5540   13.0420 C.2    65  ILE65       0.2260
      4  O         31.1360   57.6570   13.6860 O.2    65  ILE65      -0.2867
      5  CB        32.1370   55.0930   12.6100 C.3    65  ILE65       0.0252
      6  CG1       32.8840   53.7470   12.7350 C.3    65  ILE65       0.0019
      7  CG2       31.7380   55.3480   11.1520 C.3    65  ILE65       0.0019
      8  CD1       31.9410   52.5250   12.6950 C.3    65  ILE65       0.0001
      9  N         27.8840   53.2430    3.3420 N.3   139  ASP139     -0.1225
     10  CA        26.7640   52.6390    4.0530 C.3   139  ASP139      0.1805
     11  C         25.7970   52.0270    3.0510 C.2   139  ASP139      0.2597
     12  O         25.5690   52.6050    1.9780 O.2   139  ASP139     -0.2718
     13  CB        26.0370   53.6890    4.8900 C.3   139  ASP139      0.1424
     14  CG        26.8150   54.1010    6.1340 C.2   139  ASP139      0.3668
     15  OD1       27.9200   53.5660    6.3960 O.co2 139  ASP139     -0.2456
     16  OD2       26.3120   54.9940    6.8520 O.co2 139  ASP139     -0.2456
     17  N         25.2260   50.8620    3.3680 N.am  140  MET140     -0.1979
     18  CA        24.3300   50.2370    2.3930 C.3   140  MET140      0.1605
     19  C         22.9180   50.7220    2.6140 C.2   140  MET140      0.2287
     20  O         22.3800   50.6420    3.7080 O.2   140  MET140     -0.2864
     21  CB        24.4020   48.6910    2.3950 C.3   140  MET140      0.0413
     22  CG        23.8290   48.0490    1.1060 C.3   140  MET140      0.0598
     23  SD        24.7160   48.4890   -0.4070 S.3   140  MET140     -0.1393
     24  CE        25.5760   47.0010   -0.7760 C.3   140  MET140      0.0692
     25  N         29.2520   47.7470    3.0550 N.3   167  VAL167     -0.1245
     26  CA        28.3940   47.2060    4.1060 C.3   167  VAL167      0.1561
     27  C         27.5580   46.1580    3.3830 C.2   167  VAL167      0.2260
     28  O         27.0730   46.4360    2.3050 O.2   167  VAL167     -0.2867
     29  CB        27.4750   48.2930    4.7300 C.3   167  VAL167      0.0252
     30  CG1       26.5530   47.6840    5.7490 C.3   167  VAL167      0.0019
     31  CG2       28.2920   49.4250    5.3710 C.3   167  VAL167      0.0019
     32  N         24.2370   43.3930    4.0740 N.3   169  GLN169     -0.1245
     33  CA        23.0820   43.1900    4.9160 C.3   169  GLN169      0.1566
     34  C         22.6600   41.7280    4.8750 C.2   169  GLN169      0.2260
     35  O         22.3660   41.1840    3.8060 O.2   169  GLN169     -0.2867
     36  CB        21.9230   44.0430    4.4000 C.3   169  GLN169      0.0367
     37  CG        22.1210   45.5770    4.5460 C.3   169  GLN169      0.0905
     38  CD        21.4940   46.3420    3.3980 C.2   169  GLN169      0.2608
     39  OE1       21.3490   45.8220    2.2850 O.2   169  GLN169     -0.2717
     40  NE2       21.1170   47.5860    3.6560 N.am  169  GLN169     -0.0878
     41  N         31.7130   45.6890    6.5310 N.3   190  ARG190     -0.1245
     42  CA        30.8560   45.8020    7.6890 C.3   190  ARG190      0.1563
     43  C         29.6400   44.8940    7.4610 C.2   190  ARG190      0.2260
     44  O         28.9750   44.9830    6.4290 O.2   190  ARG190     -0.2867
     45  CB        30.4110   47.2620    7.9740 C.3   190  ARG190      0.0307
     46  CG        29.4800   47.3560    9.1600 C.3   190  ARG190      0.0489
     47  CD        28.6970   48.6930    9.2190 C.3   190  ARG190      0.2205
     48  NE        29.5970   49.8370    9.3910 N.pl3 190  ARG190     -0.0865
     49  CZ        29.3360   51.0690    8.9420 C.cat 190  ARG190      0.5346
     50  NH1       30.2180   52.0420    9.1440 N.pl3 190  ARG190      0.1354
     51  NH2       28.2090   51.3180    8.2650 N.pl3 190  ARG190      0.1354
     52  N         25.9220   43.8250    8.6220 N.3   192  VAL192     -0.1231
     53  CA        24.7600   44.3060    9.3720 C.3   192  VAL192      0.1692
     54  C         23.6150   43.3650    9.0610 C.2   192  VAL192      0.2592
     55  O         23.6520   42.6620    8.0540 O.2   192  VAL192     -0.2718
     56  CB        24.3840   45.7700    9.0080 C.3   192  VAL192      0.0266
     57  CG1       25.5270   46.7420    9.3300 C.3   192  VAL192      0.0020
     58  CG2       23.9790   45.9230    7.5000 C.3   192  VAL192      0.0020
     59  N         22.5900   43.3490    9.8980 N.am  193  LYS193     -0.1966
     60  CA        21.3580   42.6340    9.5250 C.3   193  LYS193      0.1728
     61  C         20.5830   43.3640    8.4370 C.2   193  LYS193      0.2617
     62  O         20.0210   42.7210    7.5430 O.2   193  LYS193     -0.2715
     63  CB        20.4550   42.4070   10.7360 C.3   193  LYS193      0.0311
     64  CG        21.0720   41.5820   11.8570 C.3   193  LYS193      0.0038
     65  CD        20.0700   41.2880   12.9310 C.3   193  LYS193      0.0206
     66  CE        20.7600   40.5420   14.1050 C.3   193  LYS193      0.1093
     67  NZ        19.8420   40.2980   15.2870 N.3   193  LYS193     -0.1314
     68  N         20.5260   44.6980    8.5360 N.am  194  GLY194     -0.1940
     69  CA        19.8600   45.5420    7.5560 C.3   194  GLY194      0.2014
     70  C         18.7670   46.3650    8.2110 C.2   194  GLY194      0.2639
     71  O         18.0280   45.8470    9.0400 O.2   194  GLY194     -0.2714
     72  N         18.6520   47.6350    7.7960 N.am  195  ALA195     -0.1963
     73  CA        17.7630   48.6310    8.4390 C.3   195  ALA195      0.1728
     74  C         16.4360   48.9290    7.7190 C.2   195  ALA195      0.2616
     75  O         15.5630   49.5950    8.2890 O.2   195  ALA195     -0.2715
     76  CB        18.5450   49.9490    8.6460 C.3   195  ALA195      0.0334
     77  N         16.2670   48.4560    6.4880 N.am  196  TYR196     -0.1974
     78  CA        15.1310   48.8800    5.6490 C.3   196  TYR196      0.1639
     79  C         13.9720   47.9150    5.6430 C.2   196  TYR196      0.2290
     80  O         14.1110   46.7590    6.0360 O.2   196  TYR196     -0.2864
     81  CB        15.5910   49.1820    4.2120 C.3   196  TYR196      0.0560
     82  CG        16.6280   50.2600    4.2270 C.ar  196  TYR196     -0.0198
     83  CD1       16.2420   51.5990    4.1320 C.ar  196  TYR196     -0.0009
     84  CD2       17.9850   49.9630    4.4290 C.ar  196  TYR196     -0.0009
     85  CE1       17.1730   52.6140    4.1990 C.ar  196  TYR196      0.0417
     86  CE2       18.9290   50.9830    4.5080 C.ar  196  TYR196      0.0417
     87  CZ        18.5020   52.3170    4.3680 C.ar  196  TYR196      0.1957
     88  OH        19.3960   53.3700    4.4190 O.3   196  TYR196     -0.2866
     89  N         12.9900   36.5730   11.3080 N.3   207  LYS207     -0.1245
     90  CA        14.0840   37.0590   12.1110 C.3   207  LYS207      0.1561
     91  C         15.0730   35.9530   12.5010 C.2   207  LYS207      0.2260
     92  O         16.2400   36.2100   12.6780 O.2   207  LYS207     -0.2867
     93  CB        13.5110   37.6850   13.3750 C.3   207  LYS207      0.0271
     94  CG        14.1310   38.9890   13.7350 C.3   207  LYS207      0.0035
     95  CD        13.5750   39.5110   15.0610 C.3   207  LYS207      0.0206
     96  CE        12.4780   40.5640   14.8650 C.3   207  LYS207      0.1093
     97  NZ        12.6280   41.6910   15.8570 N.3   207  LYS207     -0.1314
     98  N         19.0710   36.3220   11.4260 N.3   211  ASP211     -0.1239
     99  CA        20.1500   36.1140   12.3780 C.3   211  ASP211      0.1674
    100  C         21.0400   34.9320   11.9440 C.2   211  ASP211      0.2266
    101  O         22.2630   34.9850   12.1030 O.2   211  ASP211     -0.2867
    102  CB        19.5790   35.7800   13.7560 C.3   211  ASP211      0.1410
    103  CG        18.8360   36.9520   14.4020 C.2   211  ASP211      0.3668
    104  OD1       18.8660   38.0910   13.8750 O.co2 211  ASP211     -0.2456
    105  OD2       18.2320   36.7340   15.4620 O.co2 211  ASP211     -0.2456
    106  N         28.8340   44.8720   12.8570 N.3   231  ALA231     -0.1231
    107  CA        28.0110   45.9620   13.3430 C.3   231  ALA231      0.1694
    108  C         26.6510   45.4020   13.7940 C.2   231  ALA231      0.2593
    109  O         25.7460   45.1910   12.9810 O.2   231  ALA231     -0.2718
    110  CB        27.8460   46.9960   12.2550 C.3   231  ALA231      0.0304
    111  N         26.5410   45.1550   15.0940 N.am  232  THR232     -0.1939
    112  CA        25.3670   44.5080   15.6910 C.3   232  THR232      0.2028
    113  C         25.3890   44.7290   17.1940 C.2   232  THR232      0.2642
    114  O         26.4590   44.8130   17.7760 O.2   232  THR232     -0.2714
    115  CB        25.3260   42.9550   15.4200 C.3   232  THR232      0.1808
    116  OG1       24.0980   42.4370   15.9100 O.3   232  THR232     -0.2208
    117  CG2       26.5150   42.1950   16.1310 C.3   232  THR232      0.0379
    118  N         24.2020   44.7930   17.8130 N.am  233  HIS233     -0.1959
    119  CA        24.0730   44.9410   19.2620 C.3   233  HIS233      0.1787
    120  C         23.5340   43.6400   19.8820 C.2   233  HIS233      0.2620
    121  O         23.2970   43.5640   21.0920 O.2   233  HIS233     -0.2715
    122  CB        23.0820   46.0730   19.5860 C.3   233  HIS233      0.0785
    123  CG        23.3920   47.3660   18.8870 C.ar  233  HIS233      0.0821
    124  ND1       22.6190   47.8660   17.8580 N.ar  233  HIS233     -0.2267
    125  CD2       24.4150   48.2420   19.0450 C.ar  233  HIS233      0.1154
    126  CE1       23.1320   49.0140   17.4440 C.ar  233  HIS233      0.1986
    127  NE2       24.2260   49.2590   18.1410 N.ar  233  HIS233     -0.2212
    128  N         23.2840   42.6550   19.0220 N.am  234  ASP234     -0.1958
    129  CA        22.6770   41.3820   19.3830 C.3   234  ASP234      0.1825
    130  C         23.6640   40.5780   20.2490 C.2   234  ASP234      0.2464
    131  O         24.7310   40.1760   19.7410 O.2   234  ASP234     -0.2730
    132  CB        22.3670   40.6170   18.0800 C.3   234  ASP234      0.1450
    133  CG        21.5720   39.3350   18.3200 C.2   234  ASP234      0.3671
    134  OD1       21.8580   38.5980   19.3040 O.co2 234  ASP234     -0.2456
    135  OD2       20.6420   39.0700   17.5300 O.co2 234  ASP234     -0.2456
    136  N         23.3200   40.3280   21.5390 N.am  235  PRO235     -0.2727
    137  CA        24.2290   39.6010   22.4690 C.3   235  PRO235      0.1402
    138  C         24.4180   38.1030   22.1410 C.2   235  PRO235      0.2269
    139  O         25.4870   37.5280   22.4400 O.2   235  PRO235     -0.2865
    140  CB        23.5540   39.7680   23.8410 C.3   235  PRO235      0.0296
    141  CG        22.1430   40.0260   23.5210 C.3   235  PRO235      0.0237
    142  CD        22.0900   40.7680   22.2260 C.3   235  PRO235      0.0939
    143  N         31.0830   46.8290   16.0790 N.3   258  GLN258     -0.1231
    144  CA        30.6260   48.2220   15.8670 C.3   258  GLN258      0.1698
    145  C         29.2070   48.3500   16.4400 C.2   258  GLN258      0.2592
    146  O         28.3810   47.4510   16.2560 O.2   258  GLN258     -0.2718
    147  CB        30.6090   48.5830   14.3680 C.3   258  GLN258      0.0381
    148  CG        31.9290   48.6020   13.7070 C.3   258  GLN258      0.0905
    149  CD        31.8730   49.0840   12.2730 C.2   258  GLN258      0.2608
    150  OE1       30.8000   49.2110   11.6800 O.2   258  GLN258     -0.2717
    151  NE2       33.0510   49.3340   11.6890 N.am  258  GLN258     -0.0878
    152  N         28.9890   49.4370   17.1900 N.am  259  PHE259     -0.1962
    153  CA        27.7690   49.7570   17.8990 C.3   259  PHE259      0.1771
    154  C         27.4010   51.1750   17.4880 C.2   259  PHE259      0.2619
    155  O         28.2770   51.9940   17.1740 O.2   259  PHE259     -0.2715
    156  CB        28.0040   49.7500   19.4270 C.3   259  PHE259      0.0574
    157  CG        28.3260   48.3910   19.9850 C.ar  259  PHE259     -0.0200
    158  CD1       27.3670   47.6710   20.6790 C.ar  259  PHE259     -0.0042
    159  CD2       29.6100   47.8250   19.8140 C.ar  259  PHE259     -0.0042
    160  CE1       27.6520   46.3930   21.1720 C.ar  259  PHE259     -0.0003
    161  CE2       29.9050   46.5410   20.3090 C.ar  259  PHE259     -0.0003
    162  CZ        28.9240   45.8340   20.9900 C.ar  259  PHE259     -0.0000
    163  N         26.1020   51.4900   17.5290 N.am  260  LEU260     -0.1977
    164  CA        25.6820   52.8830   17.3870 C.3   260  LEU260      0.1596
    165  C         26.0890   53.6040   18.6580 C.2   260  LEU260      0.2287
    166  O         25.9890   53.0320   19.7370 O.2   260  LEU260     -0.2864
    167  CB        24.1640   53.0070   17.1570 C.3   260  LEU260      0.0297
    168  CG        23.5880   52.2480   15.9450 C.3   260  LEU260      0.0022
    169  CD1       22.0380   52.2430   15.9610 C.3   260  LEU260      0.0001
    170  CD2       24.1120   52.7900   14.5830 C.3   260  LEU260      0.0001
    171  N         24.3830   53.1770   22.3810 N.3   263  VAL263     -0.1231
    172  CA        23.7060   51.8880   22.4450 C.3   263  VAL263      0.1692
    173  C         24.6180   50.7920   23.0250 C.2   263  VAL263      0.2591
    174  O         25.6840   50.4860   22.4800 O.2   263  VAL263     -0.2718
    175  CB        23.2270   51.4410   21.0610 C.3   263  VAL263      0.0266
    176  CG1       22.4620   50.1240   21.1990 C.3   263  VAL263      0.0020
    177  CG2       22.3570   52.5500   20.4030 C.3   263  VAL263      0.0020
    178  N         24.1730   50.2070   24.1270 N.am  264  ARG264     -0.1980
    179  CA        24.9760   49.2620   24.9180 C.3   264  ARG264      0.1597
    180  C         26.3910   49.7840   25.1600 C.2   264  ARG264      0.2287
    181  O         27.3600   49.0980   24.8220 O.2   264  ARG264     -0.2864
    182  CB        24.9930   47.8680   24.2810 C.3   264  ARG264      0.0334
    183  CG        23.5860   47.2560   23.9910 C.3   264  ARG264      0.0492
    184  CD        23.7200   45.8170   23.5280 C.3   264  ARG264      0.2205
    185  NE        24.1880   44.9710   24.6340 N.pl3 264  ARG264     -0.0865
    186  CZ        24.8340   43.8200   24.4700 C.cat 264  ARG264      0.5346
    187  NH1       25.0620   43.3580   23.2490 N.pl3 264  ARG264      0.1354
    188  NH2       25.2280   43.1140   25.5280 N.pl3 264  ARG264      0.1354
    189  N         29.4830   54.1780   16.1630 N.3   281  TYR281     -0.1241
    190  CA        29.0280   54.9400   15.0240 C.3   281  TYR281      0.1605
    191  C         28.3250   56.2170   15.5130 C.2   281  TYR281      0.2264
    192  O         27.2480   56.1680   16.1220 O.2   281  TYR281     -0.2867
    193  CB        28.1070   54.0470   14.2280 C.3   281  TYR281      0.0534
    194  CG        27.5410   54.5690   12.9320 C.ar  281  TYR281     -0.0201
    195  CD1       28.0950   54.1840   11.7020 C.ar  281  TYR281     -0.0009
    196  CD2       26.4210   55.3690   12.9270 C.ar  281  TYR281     -0.0009
    197  CE1       27.5360   54.6380   10.5040 C.ar  281  TYR281      0.0417
    198  CE2       25.8670   55.8280   11.7410 C.ar  281  TYR281      0.0417
    199  CZ        26.4200   55.4520   10.5410 C.ar  281  TYR281      0.1957
    200  OH        25.8500   55.8850    9.3560 O.3   281  TYR281     -0.2866
    201  N         11.6150   52.8710   13.1490 N.3   298  GLU298     -0.1231
    202  CA        12.0000   51.5830   12.5390 C.3   298  GLU298      0.1699
    203  C         11.2430   50.3710   13.1180 C.2   298  GLU298      0.2592
    204  O         10.6640   49.5720   12.3710 O.2   298  GLU298     -0.2718
    205  CB        13.5270   51.3600   12.6140 C.3   298  GLU298      0.0402
    206  CG        14.3040   52.0050   11.4630 C.3   298  GLU298      0.1161
    207  CD        15.8310   52.0080   11.6480 C.2   298  GLU298      0.3649
    208  OE1       16.3590   51.2170   12.4640 O.co2 298  GLU298     -0.2457
    209  OE2       16.5080   52.8100   10.9640 O.co2 298  GLU298     -0.2457
    210  N         11.2530   50.2590   14.4470 N.am  299  ARG299     -0.1980
    211  CA        10.6580   49.1440   15.1830 C.3   299  ARG299      0.1597
    212  C         10.1900   49.6670   16.5380 C.2   299  ARG299      0.2287
    213  O         10.8330   50.5560   17.1070 O.2   299  ARG299     -0.2864
    214  CB        11.6930   48.0340   15.3930 C.3   299  ARG299      0.0334
    215  CG        13.0120   48.5710   15.9480 C.3   299  ARG299      0.0492
    216  CD        13.9710   47.4740   16.4310 C.3   299  ARG299      0.2205
    217  NE        14.0380   46.3390   15.5030 N.pl3 299  ARG299     -0.0865
    218  CZ        14.7990   46.3040   14.4170 C.cat 299  ARG299      0.5346
    219  NH1       15.5850   47.3090   14.0770 N.pl3 299  ARG299      0.1354
    220  NH2       14.7810   45.2170   13.6550 N.pl3 299  ARG299      0.1354
@<TRIPOS>BOND
     1    24    23    1
     2    23    22    1
     3    22    21    1
     4    12    11    2
     5    39    38    2
     6    28    27    2
     7    18    21    1
     8    18    19    1
     9    18    17    1
    10    19    20    2
    11    11    17   am
    12    11    10    1
    13    25    26    1
    14     9    10    1
    15    27    26    1
    16    38    40   am
    17    38    37    1
    18    35    34    2
    19    10    13    1
    20    32    33    1
    21    26    29    1
    22    83    85   ar
    23    83    82   ar
    24    85    87   ar
    25    81    82    1
    26    81    78    1
    27    82    84   ar
    28    87    88    1
    29    87    86   ar
    30    36    37    1
    31    36    33    1
    32    84    86   ar
    33    29    31    1
    34    29    30    1
    35    34    33    1
    36    13    14    1
    37    79    78    1
    38    79    80    2
    39    78    77    1
    40    14    15   ar
    41    14    16   ar
    42    44    43    2
    43    77    74   am
    44    41    42    1
    45    43    42    1
    46    58    56    1
    47    62    61    2
    48    69    70    1
    49    69    68    1
    50    42    45    1
    51    74    75    2
    52    74    73    1
    53    72    70   am
    54    72    73    1
    55    45    46    1
    56    55    54    2
    57    70    71    2
    58    51    49    1
    59    61    68   am
    60    61    60    1
    61    73    76    1
    62    52    53    1
    63    49    50    1
    64    49    48    2
    65    56    57    1
    66    56    53    1
    67    54    53    1
    68    54    59   am
    69    46    47    1
    70    47    48    1
    71   200   199    1
    72    60    59    1
    73    60    63    1
    74   197   199   ar
    75   197   195   ar
    76   199   198   ar
    77    63    64    1
    78   209   207   ar
    79     7     5    1
    80    89    90    1
    81    98    99    1
    82   206   207    1
    83   206   205    1
    84   207   208   ar
    85   150   149    2
    86   151   149   am
    87   195   194   ar
    88   198   196   ar
    89    64    65    1
    90   100   101    2
    91   100    99    1
    92    90    91    1
    93    90    93    1
    94   110   107    1
    95   149   148    1
    96   204   203    2
    97    99   102    1
    98    91    92    2
    99   202   205    1
   100   202   203    1
   101   202   201    1
   102     5     6    1
   103     5     2    1
   104     8     6    1
   105   106   107    1
   106   196   194   ar
   107    65    66    1
   108   194   193    1
   109   109   108    2
   110     3     2    1
   111     3     4    2
   112   203   210   am
   113     2     1    1
   114   107   108    1
   115    93    94    1
   116   220   218    1
   117   148   147    1
   118    94    95    1
   119   102   103    1
   120   108   111   am
   121   104   103   ar
   122   219   218    1
   123    66    67    1
   124   193   190    1
   125   147   144    1
   126   103   105   ar
   127   218   217    2
   128   210   211    1
   129   170   168    1
   130    96    95    1
   131    96    97    1
   132   190   191    1
   133   190   189    1
   134   111   112    1
   135   211   214    1
   136   211   212    1
   137   214   215    1
   138   115   112    1
   139   115   116    1
   140   115   117    1
   141   217   216    1
   142   191   192    2
   143   112   113    1
   144   144   143    1
   145   144   145    1
   146   168   169    1
   147   168   167    1
   148   215   216    1
   149   146   145    2
   150   145   152   am
   151   212   213    2
   152   167   164    1
   153   155   154    2
   154   152   153    1
   155   113   114    2
   156   113   118   am
   157   164   163    1
   158   164   165    1
   159   126   124   ar
   160   126   127   ar
   161   154   163   am
   162   154   153    1
   163   135   133   ar
   164   118   119    1
   165   124   123   ar
   166   153   156    1
   167   132   133    1
   168   132   129    1
   169   127   125   ar
   170   133   134   ar
   171   165   166    2
   172   123   125   ar
   173   123   122    1
   174   128   129    1
   175   128   120   am
   176   119   122    1
   177   119   120    1
   178   129   130    1
   179   156   157    1
   180   131   130    2
   181   159   157   ar
   182   159   161   ar
   183   120   121    2
   184   157   158   ar
   185   130   136   am
   186   161   162   ar
   187   177   175    1
   188   158   160   ar
   189   162   160   ar
   190   175   176    1
   191   175   172    1
   192   136   142    1
   193   136   137    1
   194   138   139    2
   195   138   137    1
   196   142   141    1
   197   171   172    1
   198   172   173    1
   199   137   140    1
   200   174   173    2
   201   173   178   am
   202   187   186    1
   203   141   140    1
   204   184   183    1
   205   184   185    1
   206   183   182    1
   207   178   179    1
   208   182   179    1
   209   186   185    2
   210   186   188    1
   211   181   180    2
   212   179   180    1
