@<TRIPOS>MOLECULE
tmp/2g3fA00.pdb
 129 123 0 0 0
SMALL
GASTEIGER

@<TRIPOS>ATOM
      1  N         57.4980   18.2360   22.7680 N.3    81  HIS81      -0.1241
      2  CA        58.9550   18.1900   22.9020 C.3    81  HIS81       0.1621
      3  C         59.1980   16.9230   23.7170 C.2    81  HIS81       0.2264
      4  O         59.9220   16.9360   24.7180 O.2    81  HIS81      -0.2867
      5  CB        59.4730   19.3990   23.6900 C.3    81  HIS81       0.0745
      6  CG        59.1340   20.7220   23.0790 C.ar   81  HIS81       0.0817
      7  ND1       60.0860   21.5590   22.5370 N.ar   81  HIS81      -0.2268
      8  CD2       57.9500   21.3660   22.9440 C.ar   81  HIS81       0.1154
      9  CE1       59.5050   22.6590   22.0960 C.ar   81  HIS81       0.1986
     10  NE2       58.2100   22.5660   22.3300 N.ar   81  HIS81      -0.2212
     11  N         61.8710   19.6790   35.3190 N.3    88  ARG88      -0.1245
     12  CA        62.0860   21.0070   35.8870 C.3    88  ARG88       0.1563
     13  C         61.2630   21.3410   37.1350 C.2    88  ARG88       0.2260
     14  O         60.9670   22.5080   37.3790 O.2    88  ARG88      -0.2867
     15  CB        61.8470   22.0690   34.8030 C.3    88  ARG88       0.0307
     16  CG        62.6380   21.8270   33.5090 C.3    88  ARG88       0.0489
     17  CD        63.5900   22.9800   33.1570 C.3    88  ARG88       0.2205
     18  NE        62.9230   24.1660   32.5990 N.pl3  88  ARG88      -0.0865
     19  CZ        62.5290   24.3010   31.3290 C.cat  88  ARG88       0.5346
     20  NH1       61.9340   25.4220   30.9320 N.pl3  88  ARG88       0.1354
     21  NH2       62.7290   23.3260   30.4460 N.pl3  88  ARG88       0.1354
     22  N         59.2980   33.5780   32.7540 N.3   101  TYR101     -0.1241
     23  CA        59.8140   32.4720   31.9720 C.3   101  TYR101      0.1605
     24  C         61.1270   32.8830   31.2930 C.2   101  TYR101      0.2264
     25  O         62.1300   32.1730   31.3630 O.2   101  TYR101     -0.2867
     26  CB        58.7810   32.0820   30.9090 C.3   101  TYR101      0.0534
     27  CG        59.2720   31.0560   29.9200 C.ar  101  TYR101     -0.0201
     28  CD1       59.3040   29.6960   30.2450 C.ar  101  TYR101     -0.0009
     29  CD2       59.7470   31.4470   28.6710 C.ar  101  TYR101     -0.0009
     30  CE1       59.8030   28.7520   29.3420 C.ar  101  TYR101      0.0417
     31  CE2       60.2470   30.5170   27.7670 C.ar  101  TYR101      0.0417
     32  CZ        60.2770   29.1750   28.1080 C.ar  101  TYR101      0.1957
     33  OH        60.8190   28.2740   27.2220 O.3   101  TYR101     -0.2866
     34  N         65.0010   26.1410   29.3330 N.3   111  ILE111     -0.1245
     35  CA        65.4210   25.2790   28.2380 C.3   111  ILE111      0.1561
     36  C         66.8790   24.8740   28.4290 C.2   111  ILE111      0.2260
     37  O         67.2370   23.7080   28.2590 O.2   111  ILE111     -0.2867
     38  CB        65.2680   26.0030   26.8740 C.3   111  ILE111      0.0252
     39  CG1       63.7860   26.2690   26.6010 C.3   111  ILE111      0.0019
     40  CG2       65.8860   25.1690   25.7500 C.3   111  ILE111      0.0019
     41  CD1       63.5270   27.1130   25.3700 C.3   111  ILE111      0.0001
     42  N         66.6560   20.1580   22.6390 N.3   151  TYR151     -0.1241
     43  CA        67.2230   20.1640   23.9810 C.3   151  TYR151      0.1605
     44  C         68.6780   19.7040   23.8830 C.2   151  TYR151      0.2264
     45  O         69.2540   19.1960   24.8380 O.2   151  TYR151     -0.2867
     46  CB        66.4120   19.2550   24.9060 C.3   151  TYR151      0.0534
     47  CG        65.0800   19.8600   25.3130 C.ar  151  TYR151     -0.0201
     48  CD1       63.9160   19.0980   25.3140 C.ar  151  TYR151     -0.0009
     49  CD2       64.9910   21.1950   25.7110 C.ar  151  TYR151     -0.0009
     50  CE1       62.6880   19.6470   25.7010 C.ar  151  TYR151      0.0417
     51  CE2       63.7700   21.7570   26.1000 C.ar  151  TYR151      0.0417
     52  CZ        62.6240   20.9770   26.0930 C.ar  151  TYR151      0.1957
     53  OH        61.4190   21.5190   26.4860 O.3   151  TYR151     -0.2866
     54  N         66.3120   26.1930   19.2470 N.3   184  HIS184     -0.1241
     55  CA        65.3750   26.3680   20.3580 C.3   184  HIS184      0.1621
     56  C         65.8030   27.5010   21.2990 C.2   184  HIS184      0.2264
     57  O         64.9710   28.2510   21.8180 O.2   184  HIS184     -0.2867
     58  CB        65.2630   25.0520   21.1330 C.3   184  HIS184      0.0745
     59  CG        64.0400   24.9500   21.9890 C.ar  184  HIS184      0.0817
     60  ND1       63.7410   23.8230   22.7250 N.ar  184  HIS184     -0.2268
     61  CD2       63.0340   25.8260   22.2170 C.ar  184  HIS184      0.1154
     62  CE1       62.6030   24.0090   23.3690 C.ar  184  HIS184      0.1986
     63  NE2       62.1530   25.2170   23.0780 N.ar  184  HIS184     -0.2212
     64  N         62.5060   29.1610   17.8740 N.3   220  PHE220     -0.1241
     65  CA        61.8620   29.9370   18.9220 C.3   220  PHE220      0.1605
     66  C         62.1280   31.4150   18.6650 C.2   220  PHE220      0.2264
     67  O         63.1320   31.9630   19.1110 O.2   220  PHE220     -0.2867
     68  CB        62.4100   29.5060   20.2940 C.3   220  PHE220      0.0534
     69  CG        61.6490   30.0660   21.4730 C.ar  220  PHE220     -0.0203
     70  CD1       60.3810   30.6250   21.3150 C.ar  220  PHE220     -0.0042
     71  CD2       62.1990   30.0100   22.7510 C.ar  220  PHE220     -0.0042
     72  CE1       59.6700   31.1210   22.4150 C.ar  220  PHE220     -0.0003
     73  CE2       61.5000   30.5040   23.8580 C.ar  220  PHE220     -0.0003
     74  CZ        60.2320   31.0610   23.6900 C.ar  220  PHE220     -0.0000
     75  N         57.7270   28.8250   16.6900 N.3   248  HIS248     -0.1241
     76  CA        57.1530   29.1720   17.9880 C.3   248  HIS248      0.1621
     77  C         57.0600   30.6870   17.8620 C.2   248  HIS248      0.2264
     78  O         58.0490   31.3990   18.0510 O.2   248  HIS248     -0.2867
     79  CB        58.0990   28.7760   19.1240 C.3   248  HIS248      0.0745
     80  CG        58.0410   27.3210   19.4720 C.ar  248  HIS248      0.0817
     81  ND1       58.2520   26.3270   18.5420 N.ar  248  HIS248     -0.2268
     82  CD2       57.7810   26.6920   20.6420 C.ar  248  HIS248      0.1154
     83  CE1       58.1240   25.1480   19.1230 C.ar  248  HIS248      0.1986
     84  NE2       57.8390   25.3410   20.3970 N.ar  248  HIS248     -0.2212
     85  N         54.8870   34.0820   21.2820 N.3   251  GLU251     -0.1245
     86  CA        54.4760   33.4000   22.5000 C.3   251  GLU251      0.1567
     87  C         54.3870   34.3710   23.6730 C.2   251  GLU251      0.2260
     88  O         53.4080   34.3850   24.4290 O.2   251  GLU251     -0.2867
     89  CB        55.4580   32.2770   22.8590 C.3   251  GLU251      0.0388
     90  CG        55.0230   31.5110   24.1150 C.3   251  GLU251      0.1160
     91  CD        56.0060   30.4420   24.5710 C.2   251  GLU251      0.3649
     92  OE1       55.6760   29.7250   25.5430 O.co2 251  GLU251     -0.2457
     93  OE2       57.0960   30.3160   23.9740 O.co2 251  GLU251     -0.2457
     94  N         51.6380   28.7420   19.3620 N.3   271  HIS271     -0.1241
     95  CA        51.5450   29.6160   20.5410 C.3   271  HIS271      0.1621
     96  C         50.6710   30.8030   20.1580 C.2   271  HIS271      0.2264
     97  O         49.4710   30.8060   20.4310 O.2   271  HIS271     -0.2867
     98  CB        52.9170   30.1100   21.0050 C.3   271  HIS271      0.0745
     99  CG        53.6500   29.1370   21.8710 C.ar  271  HIS271      0.0817
    100  ND1       53.1710   28.7260   23.0970 N.ar  271  HIS271     -0.2268
    101  CD2       54.8350   28.5040   21.6980 C.ar  271  HIS271      0.1154
    102  CE1       54.0300   27.8820   23.6410 C.ar  271  HIS271      0.1986
    103  NE2       55.0490   27.7310   22.8130 N.ar  271  HIS271     -0.2212
    104  N         51.8160   20.6230   23.8960 N.3   323  ASP323     -0.1239
    105  CA        53.1140   21.2940   23.9680 C.3   323  ASP323      0.1674
    106  C         53.8810   20.5600   25.0750 C.2   323  ASP323      0.2266
    107  O         54.7030   21.1480   25.7830 O.2   323  ASP323     -0.2867
    108  CB        52.9900   22.7840   24.3240 C.3   323  ASP323      0.1410
    109  CG        54.3360   23.5200   24.2330 C.2   323  ASP323      0.3668
    110  OD1       55.2310   23.0290   23.5220 O.co2 323  ASP323     -0.2456
    111  OD2       54.5070   24.5860   24.8550 O.co2 323  ASP323     -0.2456
    112  N         56.2000   19.3080   27.3960 N.3   325  ASN325     -0.1240
    113  CA        57.6030   19.6130   27.6040 C.3   325  ASN325      0.1653
    114  C         57.8000   19.8510   29.1080 C.2   325  ASN325      0.2266
    115  O         56.8830   20.2970   29.8130 O.2   325  ASN325     -0.2867
    116  CB        58.0120   20.8350   26.7640 C.3   325  ASN325      0.1155
    117  CG        57.5900   22.1570   27.3870 C.2   325  ASN325      0.2627
    118  OD1       58.1800   22.6090   28.3670 O.2   325  ASN325     -0.2716
    119  ND2       56.5710   22.7890   26.8110 N.am  325  ASN325     -0.0877
    120  N         59.4830   22.1060   30.7220 N.3   327  GLY327     -0.1210
    121  CA        59.5390   23.4810   31.1830 C.3   327  GLY327      0.1956
    122  C         58.2840   24.3240   31.3130 C.2   327  GLY327      0.2612
    123  O         58.1030   24.9860   32.3380 O.2   327  GLY327     -0.2717
    124  N         57.4230   24.3130   30.2970 N.am  328  SER328     -0.1952
    125  CA        56.2190   25.1400   30.3200 C.3   328  SER328      0.1924
    126  C         54.8770   24.4340   30.1440 C.2   328  SER328      0.2314
    127  O         53.8290   25.0790   30.1860 O.2   328  SER328     -0.2863
    128  CB        56.3460   26.2410   29.2700 C.3   328  SER328      0.2116
    129  OG        56.4980   25.6760   27.9870 O.3   328  SER328     -0.2180
@<TRIPOS>BOND
     1    75    76    1
     2    77    76    1
     3    77    78    2
     4    64    65    1
     5    76    79    1
     6    81    83   ar
     7    81    80   ar
     8    66    65    1
     9    66    67    2
    10    65    68    1
    11    83    84   ar
    12    79    80    1
    13    54    55    1
    14    94    95    1
    15    80    82   ar
    16    96    97    2
    17    96    95    1
    18    68    69    1
    19    55    58    1
    20    55    56    1
    21    84    82   ar
    22    95    98    1
    23    98    99    1
    24    58    59    1
    25    85    86    1
    26    56    57    2
    27    70    69   ar
    28    70    72   ar
    29    69    71   ar
    30   101    99   ar
    31   101   103   ar
    32    99   100   ar
    33    59    61   ar
    34    59    60   ar
    35     9    10   ar
    36     9     7   ar
    37    61    63   ar
    38    10     8   ar
    39    72    74   ar
    40    86    89    1
    41    86    87    1
    42     7     6   ar
    43    42    43    1
    44    60    62   ar
    45    71    73   ar
    46     1     2    1
    47   103   102   ar
    48    89    90    1
    49     2     5    1
    50     2     3    1
    51     8     6   ar
    52    63    62   ar
    53     6     5    1
    54   100   102   ar
    55   110   109   ar
    56    87    88    2
    57    74    73   ar
    58     3     4    2
    59    44    43    1
    60    44    45    2
    61   104   105    1
    62   105   108    1
    63   105   106    1
    64    93    91   ar
    65    43    46    1
    66    90    91    1
    67   109   108    1
    68   109   111   ar
    69    91    92   ar
    70    46    47    1
    71   106   107    2
    72    47    48   ar
    73    47    49   ar
    74    48    50   ar
    75    41    39    1
    76    50    52   ar
    77    49    51   ar
    78    40    38    1
    79    52    51   ar
    80    52    53    1
    81    39    38    1
    82   116   117    1
    83   116   113    1
    84   119   117   am
    85    38    35    1
    86    33    32    1
    87   117   118    2
    88   112   113    1
    89   113   114    1
    90    31    32   ar
    91    31    29   ar
    92   129   128    1
    93    32    30   ar
    94    35    36    1
    95    35    34    1
    96    37    36    2
    97    29    27   ar
    98   114   115    2
    99   128   125    1
   100    30    28   ar
   101    27    28   ar
   102    27    26    1
   103   126   127    2
   104   126   125    1
   105   124   125    1
   106   124   122   am
   107    21    19    1
   108   120   121    1
   109    26    23    1
   110    20    19    1
   111   121   122    1
   112    24    25    2
   113    24    23    1
   114   122   123    2
   115    19    18    2
   116    23    22    1
   117    18    17    1
   118    17    16    1
   119    16    15    1
   120    15    12    1
   121    11    12    1
   122    12    13    1
   123    13    14    2
