@<TRIPOS>MOLECULE
tmp/2g3nF00.pdb
 106 101 0 0 0
SMALL
GASTEIGER

@<TRIPOS>ATOM
      1  N         -5.8660  -16.7160   41.2740 N.3    85  ASP85      -0.1239
      2  CA        -6.5050  -15.6990   40.4490 C.3    85  ASP85       0.1674
      3  C         -5.3880  -14.6900   40.1650 C.2    85  ASP85       0.2266
      4  O         -5.0420  -13.8710   41.0130 O.2    85  ASP85      -0.2867
      5  CB        -7.6330  -15.0260   41.2250 C.3    85  ASP85       0.1410
      6  CG        -8.3360  -13.9590   40.4120 C.2    85  ASP85       0.3668
      7  OD1       -7.6390  -13.1110   39.8200 O.co2  85  ASP85      -0.2456
      8  OD2       -9.5860  -13.9600   40.3650 O.co2  85  ASP85      -0.2456
      9  N         -5.3040  -12.0820   38.2770 N.3    87  GLY87      -0.1225
     10  CA        -5.6780  -10.7070   38.0080 C.3    87  GLY87       0.1811
     11  C         -5.2150  -10.3030   36.6140 C.2    87  GLY87       0.2280
     12  O         -5.2510  -11.1100   35.6840 O.2    87  GLY87      -0.2866
     13  N        -18.3970   -9.0330   29.1270 N.3   182  TYR182     -0.1241
     14  CA       -18.7080   -9.0030   30.5340 C.3   182  TYR182      0.1605
     15  C        -19.4150   -7.6760   30.7780 C.2   182  TYR182      0.2264
     16  O        -18.7880   -6.7250   31.2290 O.2   182  TYR182     -0.2867
     17  CB       -17.3950   -9.1040   31.3160 C.3   182  TYR182      0.0534
     18  CG       -17.4760   -8.8070   32.7930 C.ar  182  TYR182     -0.0201
     19  CD1      -18.6350   -9.0670   33.5190 C.ar  182  TYR182     -0.0009
     20  CD2      -16.3670   -8.2960   33.4760 C.ar  182  TYR182     -0.0009
     21  CE1      -18.6870   -8.8250   34.8890 C.ar  182  TYR182      0.0417
     22  CE2      -16.4110   -8.0550   34.8490 C.ar  182  TYR182      0.0417
     23  CZ       -17.5700   -8.3200   35.5440 C.ar  182  TYR182      0.1957
     24  OH       -17.6220   -8.0860   36.8950 O.3   182  TYR182     -0.2866
     25  N        -18.5740  -12.8980   44.2730 N.3   282  TRP282     -0.1241
     26  CA       -19.5520  -12.0400   43.5890 C.3   282  TRP282      0.1605
     27  C        -20.8930  -11.8420   44.3110 C.2   282  TRP282      0.2264
     28  O        -21.3550  -10.7150   44.4730 O.2   282  TRP282     -0.2867
     29  CB       -19.8300  -12.5670   42.1750 C.3   282  TRP282      0.0550
     30  CG       -18.6120  -12.6880   41.2990 C.ar  282  TRP282      0.0003
     31  CD1      -18.4340  -13.5710   40.2710 C.ar  282  TRP282      0.0946
     32  CD2      -17.4190  -11.8960   41.3580 C.ar  282  TRP282      0.0152
     33  NE1      -17.2080  -13.3770   39.6870 N.ar  282  TRP282     -0.2442
     34  CE2      -16.5620  -12.3580   40.3320 C.ar  282  TRP282      0.0810
     35  CE3      -16.9890  -10.8430   42.1770 C.ar  282  TRP282      0.0012
     36  CZ2      -15.2930  -11.8020   40.1020 C.ar  282  TRP282      0.0191
     37  CZ3      -15.7240  -10.2880   41.9500 C.ar  282  TRP282      0.0001
     38  CH2      -14.8920  -10.7710   40.9180 C.ar  282  TRP282      0.0015
     39  N        -16.0460  -20.3870   36.0160 N.3   318  ASP318     -0.1225
     40  CA       -15.0790  -19.3320   36.3070 C.3   318  ASP318      0.1805
     41  C        -14.7360  -19.2060   37.7970 C.2   318  ASP318      0.2597
     42  O        -15.4650  -19.7020   38.6520 O.2   318  ASP318     -0.2718
     43  CB       -15.6200  -18.0040   35.7740 C.3   318  ASP318      0.1424
     44  CG       -14.5780  -16.9030   35.7730 C.2   318  ASP318      0.3668
     45  OD1      -13.3850  -17.2200   35.5620 O.co2 318  ASP318     -0.2456
     46  OD2      -14.9490  -15.7200   35.9660 O.co2 318  ASP318     -0.2456
     47  N        -13.6060  -18.5630   38.0920 N.am  319  MET319     -0.1979
     48  CA       -13.1700  -18.3310   39.4710 C.3   319  MET319      0.1605
     49  C        -12.9460  -19.6300   40.2450 C.2   319  MET319      0.2287
     50  O        -12.8420  -19.6170   41.4750 O.2   319  MET319     -0.2864
     51  CB       -14.2310  -17.5110   40.2110 C.3   319  MET319      0.0413
     52  CG       -14.7460  -16.2860   39.4720 C.3   319  MET319      0.0598
     53  SD       -13.4450  -15.1050   39.0300 S.3   319  MET319     -0.1393
     54  CE       -12.8100  -14.6480   40.6730 C.3   319  MET319      0.0692
     55  N        -12.3990  -13.8670   48.1310 N.3   325  PHE325     -0.1241
     56  CA       -11.9690  -12.4940   48.3820 C.3   325  PHE325      0.1605
     57  C        -12.1040  -12.0030   49.8130 C.2   325  PHE325      0.2264
     58  O        -11.8870  -10.8210   50.0720 O.2   325  PHE325     -0.2867
     59  CB       -12.7310  -11.5480   47.4510 C.3   325  PHE325      0.0534
     60  CG       -12.4070  -11.7390   46.0020 C.ar  325  PHE325     -0.0203
     61  CD1      -11.1310  -11.4360   45.5150 C.ar  325  PHE325     -0.0042
     62  CD2      -13.3630  -12.2250   45.1180 C.ar  325  PHE325     -0.0042
     63  CE1      -10.8160  -11.6190   44.1650 C.ar  325  PHE325     -0.0003
     64  CE2      -13.0610  -12.4120   43.7730 C.ar  325  PHE325     -0.0003
     65  CZ       -11.7880  -12.1090   43.2930 C.ar  325  PHE325     -0.0000
     66  N         -1.1470  -11.8310   44.9360 N.3   346  ARG346     -0.1245
     67  CA        -2.2270  -12.6510   44.4120 C.3   346  ARG346      0.1563
     68  C         -2.5980  -13.8360   45.2960 C.2   346  ARG346      0.2260
     69  O         -3.7450  -14.2760   45.2980 O.2   346  ARG346     -0.2867
     70  CB        -1.8550  -13.1290   43.0140 C.3   346  ARG346      0.0307
     71  CG        -1.7900  -12.0030   41.9800 C.3   346  ARG346      0.0489
     72  CD        -3.1580  -11.7410   41.3970 C.3   346  ARG346      0.2205
     73  NE        -3.8450  -10.5930   41.9710 N.pl3 346  ARG346     -0.0865
     74  CZ        -5.1570  -10.3890   41.8700 C.cat 346  ARG346      0.5346
     75  NH1       -5.9250  -11.2610   41.2330 N.pl3 346  ARG346      0.1354
     76  NH2       -5.7020   -9.2890   42.3700 N.pl3 346  ARG346      0.1354
     77  N        -11.4830  -22.0800   33.9280 N.3   398  ARG398     -0.1245
     78  CA       -10.3530  -21.1750   34.0250 C.3   398  ARG398      0.1563
     79  C         -9.1790  -21.8800   34.6740 C.2   398  ARG398      0.2260
     80  O         -8.0530  -21.7860   34.1970 O.2   398  ARG398     -0.2867
     81  CB       -10.7110  -19.9270   34.8330 C.3   398  ARG398      0.0307
     82  CG        -9.6840  -18.8240   34.6690 C.3   398  ARG398      0.0489
     83  CD       -10.1790  -17.5020   35.1990 C.3   398  ARG398      0.2205
     84  NE       -10.1530  -17.4520   36.6580 N.pl3 398  ARG398     -0.0865
     85  CZ       -10.3330  -16.3420   37.3660 C.cat 398  ARG398      0.5346
     86  NH1      -10.5560  -15.1920   36.7430 N.pl3 398  ARG398      0.1354
     87  NH2      -10.2780  -16.3800   38.6900 N.pl3 398  ARG398      0.1354
     88  N         -7.8280  -13.4910   32.1730 N.3   414  ASP414     -0.1239
     89  CA        -7.8150  -12.0450   31.9650 C.3   414  ASP414      0.1674
     90  C         -6.5730  -11.3980   31.3590 C.2   414  ASP414      0.2266
     91  O         -5.8490  -10.6730   32.0470 O.2   414  ASP414     -0.2867
     92  CB        -8.1350  -11.3550   33.2920 C.3   414  ASP414      0.1410
     93  CG        -9.4390  -11.8620   33.9300 C.2   414  ASP414      0.3668
     94  OD1      -10.2940  -12.4590   33.2250 O.co2 414  ASP414     -0.2456
     95  OD2       -9.6180  -11.6490   35.1500 O.co2 414  ASP414     -0.2456
     96  N         -8.9020   -9.2990   27.3760 N.3   447  PHE447     -0.1241
     97  CA        -9.9910   -9.0690   28.3090 C.3   447  PHE447      0.1605
     98  C        -10.0440   -7.6560   28.9180 C.2   447  PHE447      0.2264
     99  O        -11.0970   -7.0160   28.9060 O.2   447  PHE447     -0.2867
    100  CB        -9.9180  -10.0880   29.4420 C.3   447  PHE447      0.0534
    101  CG       -10.8570   -9.7970   30.5670 C.ar  447  PHE447     -0.0203
    102  CD1      -12.2280  -10.0380   30.4310 C.ar  447  PHE447     -0.0042
    103  CD2      -10.3820   -9.2640   31.7650 C.ar  447  PHE447     -0.0042
    104  CE1      -13.1130   -9.7590   31.4680 C.ar  447  PHE447     -0.0003
    105  CE2      -11.2610   -8.9770   32.8160 C.ar  447  PHE447     -0.0003
    106  CZ       -12.6300   -9.2270   32.6670 C.ar  447  PHE447     -0.0000
@<TRIPOS>BOND
     1    96    97    1
     2    97    98    1
     3    97   100    1
     4    99    98    2
     5    13    14    1
     6   100   101    1
     7   102   101   ar
     8   102   104   ar
     9    14    15    1
    10    14    17    1
    11   101   103   ar
    12    15    16    2
    13    17    18    1
    14    90    89    1
    15    90    91    2
    16   104   106   ar
    17   103   105   ar
    18    89    88    1
    19    89    92    1
    20   106   105   ar
    21    18    20   ar
    22    18    19   ar
    23    94    93   ar
    24    92    93    1
    25    20    22   ar
    26    19    21   ar
    27    77    78    1
    28    93    95   ar
    29    78    79    1
    30    78    81    1
    31    80    79    2
    32    82    81    1
    33    82    83    1
    34    22    23   ar
    35    21    23   ar
    36    83    84    1
    37    23    24    1
    38    45    44   ar
    39    12    11    2
    40    44    43    1
    41    44    46   ar
    42    43    40    1
    43    39    40    1
    44    40    41    1
    45    11    10    1
    46    84    85    2
    47    86    85    1
    48    85    87    1
    49    41    47   am
    50    41    42    2
    51    10     9    1
    52    47    48    1
    53    53    52    1
    54    53    54    1
    55    48    51    1
    56    48    49    1
    57    52    51    1
    58    33    31   ar
    59    33    34   ar
    60     7     6   ar
    61    36    34   ar
    62    36    38   ar
    63     3     2    1
    64     3     4    2
    65    49    50    2
    66    31    30   ar
    67    34    32   ar
    68     8     6   ar
    69     6     5    1
    70     2     5    1
    71     2     1    1
    72    38    37   ar
    73    75    74    1
    74    30    32   ar
    75    30    29    1
    76    32    35   ar
    77    72    73    1
    78    72    71    1
    79    74    73    2
    80    74    76    1
    81    37    35   ar
    82    71    70    1
    83    29    26    1
    84    70    67    1
    85    65    64   ar
    86    65    63   ar
    87    26    25    1
    88    26    27    1
    89    64    62   ar
    90    63    61   ar
    91    27    28    2
    92    67    66    1
    93    67    68    1
    94    62    60   ar
    95    68    69    2
    96    61    60   ar
    97    60    59    1
    98    59    56    1
    99    55    56    1
   100    56    57    1
   101    57    58    2
