@<TRIPOS>MOLECULE
tmp/2g3vB00.pdb
 124 119 0 0 0
SMALL
GASTEIGER

@<TRIPOS>ATOM
      1  N         61.3180   89.9100   69.4930 N.3     1  LYS1       -0.1231
      2  CA        59.8950   90.0280   69.0700 C.3     1  LYS1        0.1693
      3  C         59.1560   88.7830   69.5260 C.2     1  LYS1        0.2591
      4  O         58.1110   88.8660   70.1770 O.2     1  LYS1       -0.2718
      5  CB        59.8150   90.1320   67.5470 C.3     1  LYS1        0.0285
      6  CG        60.3630   88.9060   66.8420 C.3     1  LYS1        0.0035
      7  CD        60.3330   89.0200   65.3310 C.3     1  LYS1        0.0206
      8  CE        60.5780   87.6480   64.7070 C.3     1  LYS1        0.1093
      9  NZ        60.5070   87.6540   63.2180 N.3     1  LYS1       -0.1314
     10  N         59.7270   87.6280   69.1800 N.am    2  LEU2       -0.1980
     11  CA        59.1660   86.3140   69.4990 C.3     2  LEU2        0.1596
     12  C         59.3220   85.8240   70.9380 C.2     2  LEU2        0.2287
     13  O         59.9790   84.8180   71.2030 O.2     2  LEU2       -0.2864
     14  CB        59.7240   85.2600   68.5340 C.3     2  LEU2        0.0297
     15  CG        58.9380   85.0910   67.2320 C.3     2  LEU2        0.0022
     16  CD1       59.8410   84.6450   66.0990 C.3     2  LEU2        0.0001
     17  CD2       57.8360   84.0930   67.4620 C.3     2  LEU2        0.0001
     18  N         65.2250   78.1580   65.9010 N.3    92  SER92      -0.1202
     19  CA        65.1710   79.5040   65.3440 C.3    92  SER92       0.2020
     20  C         66.4510   79.8680   64.6210 C.2    92  SER92       0.2618
     21  O         66.5100   80.8860   63.9360 O.2    92  SER92      -0.2717
     22  CB        64.8990   80.5270   66.4450 C.3    92  SER92       0.2103
     23  OG        65.9170   80.4850   67.4310 O.3    92  SER92      -0.2182
     24  N         67.4770   79.0400   64.7810 N.am   93  ILE93      -0.1979
     25  CA        68.7570   79.2690   64.1180 C.3    93  ILE93       0.1595
     26  C         68.5470   79.0170   62.6250 C.2    93  ILE93       0.2287
     27  O         69.1850   79.6340   61.7620 O.2    93  ILE93      -0.2864
     28  CB        69.8290   78.2880   64.6580 C.3    93  ILE93       0.0276
     29  CG1       70.0540   78.5470   66.1510 C.3    93  ILE93       0.0022
     30  CG2       71.1290   78.4400   63.8780 C.3    93  ILE93       0.0022
     31  CD1       71.0120   77.5550   66.8040 C.3    93  ILE93       0.0001
     32  N         66.0840   79.7970   60.8380 N.3    95  GLY95      -0.1210
     33  CA        65.5290   80.9610   60.1690 C.3    95  GLY95       0.1956
     34  C         66.5050   81.7970   59.3510 C.2    95  GLY95       0.2611
     35  O         66.1130   82.6150   58.5090 O.2    95  GLY95      -0.2717
     36  N         67.7880   81.6040   59.6000 N.am   96  ILE96      -0.1979
     37  CA        68.8070   82.3450   58.8740 C.3    96  ILE96       0.1595
     38  C         69.0050   81.7920   57.4610 C.2    96  ILE96       0.2287
     39  O         69.2980   82.5260   56.5280 O.2    96  ILE96      -0.2864
     40  CB        70.1520   82.2750   59.6230 C.3    96  ILE96       0.0276
     41  CG1       70.0500   83.0660   60.9140 C.3    96  ILE96       0.0022
     42  CG2       71.2850   82.7840   58.7410 C.3    96  ILE96       0.0022
     43  CD1       71.2970   83.0080   61.7310 C.3    96  ILE96       0.0001
     44  N         71.7640   92.6780   52.2100 N.3   117  LEU117     -0.1231
     45  CA        71.8060   92.6600   53.6600 C.3   117  LEU117      0.1693
     46  C         72.6780   91.5030   54.1500 C.2   117  LEU117      0.2592
     47  O         73.6210   91.7130   54.9130 O.2   117  LEU117     -0.2718
     48  CB        70.3880   92.4920   54.1990 C.3   117  LEU117      0.0284
     49  CG        70.1460   92.7220   55.6880 C.3   117  LEU117      0.0019
     50  CD1       70.3120   94.1950   56.0040 C.3   117  LEU117      0.0001
     51  CD2       68.7370   92.2580   56.0430 C.3   117  LEU117      0.0001
     52  N         72.3500   90.2830   53.7150 N.am  118  TYR118     -0.1976
     53  CA        73.1150   89.1060   54.1240 C.3   118  TYR118      0.1639
     54  C         74.5880   89.2950   53.8250 C.2   118  TYR118      0.2290
     55  O         75.4390   89.0490   54.6750 O.2   118  TYR118     -0.2864
     56  CB        72.6050   87.8420   53.4140 C.3   118  TYR118      0.0560
     57  CG        71.5540   87.0850   54.2010 C.ar  118  TYR118     -0.0198
     58  CD1       71.8670   85.8970   54.8650 C.ar  118  TYR118     -0.0009
     59  CD2       70.2480   87.5710   54.2980 C.ar  118  TYR118     -0.0009
     60  CE1       70.9000   85.2170   55.6040 C.ar  118  TYR118      0.0417
     61  CE2       69.2750   86.9010   55.0300 C.ar  118  TYR118      0.0417
     62  CZ        69.6030   85.7300   55.6750 C.ar  118  TYR118      0.1957
     63  OH        68.6160   85.0650   56.3560 O.3   118  TYR118     -0.2866
     64  N         75.9620   91.8510   56.6190 N.3   121  LYS121     -0.1231
     65  CA        75.9750   91.4590   58.0280 C.3   121  LYS121      0.1693
     66  C         76.8200   90.2140   58.3320 C.2   121  LYS121      0.2591
     67  O         77.7440   90.2680   59.1420 O.2   121  LYS121     -0.2718
     68  CB        74.5440   91.2210   58.5230 C.3   121  LYS121      0.0285
     69  CG        73.7040   92.4820   58.6310 C.3   121  LYS121      0.0035
     70  CD        72.3850   92.2080   59.3460 C.3   121  LYS121      0.0206
     71  CE        71.6610   93.5170   59.7030 C.3   121  LYS121      0.1093
     72  NZ        70.4370   93.2890   60.5560 N.3   121  LYS121     -0.1314
     73  N         76.5030   89.1000   57.6730 N.am  122  LEU122     -0.1980
     74  CA        77.1870   87.8160   57.8710 C.3   122  LEU122      0.1596
     75  C         78.7190   87.8080   57.8490 C.2   122  LEU122      0.2287
     76  O         79.3520   87.3120   58.7810 O.2   122  LEU122     -0.2864
     77  CB        76.6780   86.8010   56.8480 C.3   122  LEU122      0.0297
     78  CG        75.9600   85.5740   57.4240 C.3   122  LEU122      0.0022
     79  CD1       74.9030   86.0130   58.4180 C.3   122  LEU122      0.0001
     80  CD2       75.3240   84.7660   56.2940 C.3   122  LEU122      0.0001
     81  N         81.1330   88.9660   61.3360 N.3   125  LEU125     -0.1231
     82  CA        80.1160   88.7600   62.3670 C.3   125  LEU125      0.1693
     83  C         80.4270   87.5070   63.1700 C.2   125  LEU125      0.2592
     84  O         80.1070   87.4070   64.3550 O.2   125  LEU125     -0.2718
     85  CB        78.7350   88.6200   61.7240 C.3   125  LEU125      0.0284
     86  CG        77.5950   88.2590   62.6690 C.3   125  LEU125      0.0019
     87  CD1       77.6450   89.1650   63.8910 C.3   125  LEU125      0.0001
     88  CD2       76.2630   88.3930   61.9250 C.3   125  LEU125      0.0001
     89  N         81.0460   86.5510   62.4960 N.am  126  LYS126     -0.1966
     90  CA        81.4290   85.2970   63.1100 C.3   126  LYS126      0.1728
     91  C         80.3040   84.7170   63.9540 C.2   126  LYS126      0.2616
     92  O         80.3910   84.6580   65.1900 O.2   126  LYS126     -0.2715
     93  CB        82.6810   85.5230   63.9490 C.3   126  LYS126      0.0311
     94  CG        83.6940   86.4250   63.2530 C.3   126  LYS126      0.0038
     95  CD        84.0320   85.9630   61.8360 C.3   126  LYS126      0.0206
     96  CE        84.9160   84.7030   61.8220 C.3   126  LYS126      0.1093
     97  NZ        85.4900   84.4160   60.4610 N.3   126  LYS126     -0.1314
     98  N         79.2360   84.3170   63.2660 N.am  127  LEU127     -0.1963
     99  CA        78.0740   83.7140   63.9060 C.3   127  LEU127      0.1728
    100  C         78.3780   82.2570   64.1300 C.2   127  LEU127      0.2616
    101  O         78.7940   81.5540   63.2080 O.2   127  LEU127     -0.2715
    102  CB        76.8380   83.7970   63.0140 C.3   127  LEU127      0.0311
    103  CG        76.1310   85.1250   62.8000 C.3   127  LEU127      0.0022
    104  CD1       75.2280   85.0010   61.5820 C.3   127  LEU127      0.0001
    105  CD2       75.3430   85.4930   64.0360 C.3   127  LEU127      0.0001
    106  N         78.1480   81.8030   65.3530 N.am  128  PHE128     -0.1974
    107  CA        78.3910   80.4160   65.7120 C.3   128  PHE128      0.1639
    108  C         79.8820   80.1900   65.9460 C.2   128  PHE128      0.2290
    109  O         80.4060   79.0950   65.7630 O.2   128  PHE128     -0.2864
    110  CB        77.8390   79.4700   64.6290 C.3   128  PHE128      0.0560
    111  CG        76.3800   79.6940   64.3160 C.ar  128  PHE128     -0.0200
    112  CD1       75.4330   79.7610   65.3400 C.ar  128  PHE128     -0.0042
    113  CD2       75.9480   79.8390   62.9980 C.ar  128  PHE128     -0.0042
    114  CE1       74.1010   79.9670   65.0540 C.ar  128  PHE128     -0.0003
    115  CE2       74.6060   80.0480   62.7120 C.ar  128  PHE128     -0.0003
    116  CZ        73.6890   80.1110   63.7430 C.ar  128  PHE128     -0.0000
    117  N         67.7350   87.6230   77.2290 N.3   152  LEU152     -0.1245
    118  CA        68.1800   88.0450   75.9020 C.3   152  LEU152      0.1561
    119  C         69.6240   88.5150   75.9520 C.2   152  LEU152      0.2260
    120  O         70.5240   87.7280   76.2270 O.2   152  LEU152     -0.2867
    121  CB        67.2790   89.1650   75.3690 C.3   152  LEU152      0.0270
    122  CG        65.7800   88.8870   75.1780 C.3   152  LEU152      0.0019
    123  CD1       65.0430   90.2090   75.2380 C.3   152  LEU152      0.0001
    124  CD2       65.5100   88.1750   73.8670 C.3   152  LEU152      0.0001
@<TRIPOS>BOND
     1    44    45    1
     2    56    53    1
     3    56    57    1
     4    45    46    1
     5    45    48    1
     6    52    53    1
     7    52    46   am
     8    54    53    1
     9    54    55    2
    10    46    47    2
    11    48    49    1
    12    57    59   ar
    13    57    58   ar
    14    59    61   ar
    15    58    60   ar
    16    61    62   ar
    17    60    62   ar
    18    62    63    1
    19    49    50    1
    20    49    51    1
    21    80    78    1
    22    39    38    2
    23    64    65    1
    24    77    78    1
    25    77    74    1
    26    78    79    1
    27    38    37    1
    28    73    74    1
    29    73    66   am
    30    75    74    1
    31    75    76    2
    32    65    66    1
    33    65    68    1
    34    66    67    2
    35    35    34    2
    36    68    69    1
    37    69    70    1
    38    42    40    1
    39    37    36    1
    40    37    40    1
    41    70    71    1
    42    34    36   am
    43    34    33    1
    44    40    41    1
    45    71    72    1
    46    33    32    1
    47    97    96    1
    48    41    43    1
    49    81    82    1
    50   104   103    1
    51    85    82    1
    52    85    86    1
    53    27    26    2
    54    96    95    1
    55    95    94    1
    56    88    86    1
    57    82    83    1
    58    89    90    1
    59    89    83   am
    60    26    25    1
    61    86    87    1
    62   115   113   ar
    63   115   116   ar
    64   103   102    1
    65   103   105    1
    66   113   111   ar
    67   102    99    1
    68    90    93    1
    69    90    91    1
    70    83    84    2
    71   101   100    2
    72     9     8    1
    73    94    93    1
    74    98    99    1
    75    98    91   am
    76   116   114   ar
    77    30    28    1
    78    99   100    1
    79    21    20    2
    80    91    92    2
    81    25    28    1
    82    25    24    1
    83   100   106   am
    84   111   110    1
    85   111   112   ar
    86    20    24   am
    87    20    19    1
    88   110   107    1
    89    28    29    1
    90     8     7    1
    91   114   112   ar
    92     7     6    1
    93    19    18    1
    94    19    22    1
    95   106   107    1
    96   107   108    1
    97   109   108    2
    98    16    15    1
    99    29    31    1
   100    22    23    1
   101     6     5    1
   102    15    17    1
   103    15    14    1
   104     5     2    1
   105    14    11    1
   106     2     1    1
   107     2     3    1
   108    10    11    1
   109    10     3   am
   110    11    12    1
   111     3     4    2
   112    12    13    2
   113   124   122    1
   114   122   123    1
   115   122   121    1
   116   121   118    1
   117   118   119    1
   118   118   117    1
   119   119   120    2
