@<TRIPOS>MOLECULE
tmp/2g44A01.pdb
 178 168 0 0 0
SMALL
GASTEIGER

@<TRIPOS>ATOM
      1  N        -27.9050    1.9580  -11.8960 N.3    39  MET39      -0.1245
      2  CA       -27.4840    0.6910  -11.3320 C.3    39  MET39       0.1570
      3  C        -26.6420   -0.0880  -12.3200 C.2    39  MET39       0.2261
      4  O        -25.5390   -0.5100  -12.0010 O.2    39  MET39      -0.2867
      5  CB       -28.7040   -0.1270  -10.9000 C.3    39  MET39       0.0387
      6  CG       -29.3670    0.4060   -9.6400 C.3    39  MET39       0.0595
      7  SD       -28.1540    0.7880   -8.3530 S.3    39  MET39      -0.1393
      8  CE       -27.6170   -0.8600   -7.8800 C.3    39  MET39       0.0692
      9  N        -23.2670    1.4530  -12.6230 N.3    42  LEU42      -0.1231
     10  CA       -22.4930    1.3300  -11.4020 C.3    42  LEU42       0.1693
     11  C        -22.1380   -0.1250  -11.0380 C.2    42  LEU42       0.2592
     12  O        -21.0700   -0.3910  -10.4840 O.2    42  LEU42      -0.2718
     13  CB       -23.1890    2.0920  -10.2540 C.3    42  LEU42       0.0284
     14  CG       -23.2690    3.6200  -10.4560 C.3    42  LEU42       0.0019
     15  CD1      -24.2710    4.2340   -9.4670 C.3    42  LEU42       0.0001
     16  CD2      -21.9100    4.2680  -10.2840 C.3    42  LEU42       0.0001
     17  N        -23.0130   -1.0710  -11.3750 N.am   43  THR43      -0.1953
     18  CA       -22.7380   -2.4810  -11.1100 C.3    43  THR43       0.1897
     19  C        -21.7560   -3.0590  -12.1270 C.2    43  THR43       0.2313
     20  O        -20.8680   -3.8340  -11.7710 O.2    43  THR43      -0.2863
     21  CB       -24.0230   -3.3260  -11.0680 C.3    43  THR43       0.1794
     22  OG1      -24.7050   -3.2380  -12.3250 O.3    43  THR43      -0.2208
     23  CG2      -24.9390   -2.8330   -9.9750 C.3    43  THR43       0.0378
     24  N        -19.3970   -1.4690  -13.5290 N.3    45  LEU45      -0.1231
     25  CA       -18.1080   -0.9560  -13.1020 C.3    45  LEU45       0.1693
     26  C        -17.5630   -1.7260  -11.9000 C.2    45  LEU45       0.2591
     27  O        -16.4360   -2.2270  -11.9340 O.2    45  LEU45      -0.2718
     28  CB       -18.2300    0.5230  -12.7590 C.3    45  LEU45       0.0284
     29  CG       -17.0250    1.2460  -12.1580 C.3    45  LEU45       0.0019
     30  CD1      -16.0140    1.5670  -13.2240 C.3    45  LEU45       0.0001
     31  CD2      -17.5030    2.5310  -11.5050 C.3    45  LEU45       0.0001
     32  N        -18.3580   -1.8380  -10.8440 N.am   46  ALA46      -0.1980
     33  CA       -17.8980   -2.5510   -9.6610 C.3    46  ALA46       0.1597
     34  C        -17.4520   -3.9680  -10.0370 C.2    46  ALA46       0.2287
     35  O        -16.4230   -4.4570   -9.5620 O.2    46  ALA46      -0.2864
     36  CB       -18.9810   -2.5790   -8.5760 C.3    46  ALA46       0.0319
     37  N        -14.1120   -3.8050  -11.5660 N.3    49  GLU49      -0.1245
     38  CA       -13.1690   -3.4640  -10.5090 C.3    49  GLU49       0.1567
     39  C        -12.8360   -4.6690   -9.6280 C.2    49  GLU49       0.2260
     40  O        -11.7290   -4.7720   -9.1110 O.2    49  GLU49      -0.2867
     41  CB       -13.7030   -2.3270   -9.6450 C.3    49  GLU49       0.0388
     42  CG       -13.8900   -1.0060  -10.3620 C.3    49  GLU49       0.1160
     43  CD       -13.7880    0.1800   -9.4070 C.2    49  GLU49       0.3649
     44  OE1      -12.6510    0.6610   -9.1780 O.co2  49  GLU49      -0.2457
     45  OE2      -14.8420    0.6300   -8.8820 O.co2  49  GLU49      -0.2457
     46  N        -14.8250   -6.5900    0.2270 N.3    78  TRP78      -0.1227
     47  CA       -14.8290   -6.0580   -1.1320 C.3    78  TRP78       0.1737
     48  C        -15.4810   -4.6740   -1.3000 C.2    78  TRP78       0.2595
     49  O        -14.9780   -3.8420   -2.0420 O.2    78  TRP78      -0.2718
     50  CB       -15.4270   -7.0580   -2.1200 C.3    78  TRP78       0.0564
     51  CG       -16.8930   -7.2400   -1.9700 C.ar   78  TRP78       0.0003
     52  CD1      -17.5250   -8.0360   -1.0710 C.ar   78  TRP78       0.0946
     53  CD2      -17.9200   -6.6230   -2.7560 C.ar   78  TRP78       0.0152
     54  NE1      -18.8850   -7.9570   -1.2440 N.ar   78  TRP78      -0.2442
     55  CE2      -19.1540   -7.0950   -2.2720 C.ar   78  TRP78       0.0810
     56  CE3      -17.9140   -5.7210   -3.8240 C.ar   78  TRP78       0.0012
     57  CZ2      -20.3760   -6.6930   -2.8160 C.ar   78  TRP78       0.0191
     58  CZ3      -19.1270   -5.3110   -4.3580 C.ar   78  TRP78       0.0001
     59  CH2      -20.3410   -5.7950   -3.8520 C.ar   78  TRP78       0.0015
     60  N        -16.5940   -4.4140   -0.6360 N.am   79  LEU79      -0.1980
     61  CA       -17.2930   -3.1730   -0.9120 C.3    79  LEU79       0.1596
     62  C        -16.7000   -2.0200   -0.0960 C.2    79  LEU79       0.2287
     63  O        -16.7520   -0.8650   -0.5080 O.2    79  LEU79      -0.2864
     64  CB       -18.8070   -3.3500   -0.6840 C.3    79  LEU79       0.0297
     65  CG       -19.7450   -2.1660   -0.9210 C.3    79  LEU79       0.0022
     66  CD1      -19.6460   -1.6710   -2.3500 C.3    79  LEU79       0.0001
     67  CD2      -21.1730   -2.5430   -0.5720 C.3    79  LEU79       0.0001
     68  N        -13.8350   -1.1220   -2.3150 N.3    82  LEU82      -0.1231
     69  CA       -14.3690   -0.3400   -3.4240 C.3    82  LEU82       0.1693
     70  C        -14.6880    1.0620   -2.9200 C.2    82  LEU82       0.2591
     71  O        -14.3330    2.0600   -3.5490 O.2    82  LEU82      -0.2718
     72  CB       -15.6220   -0.9950   -4.0020 C.3    82  LEU82       0.0284
     73  CG       -15.5950   -1.7250   -5.3470 C.3    82  LEU82       0.0019
     74  CD1      -14.3770   -2.6050   -5.5190 C.3    82  LEU82       0.0001
     75  CD2      -16.8560   -2.5530   -5.5210 C.3    82  LEU82       0.0001
     76  N        -15.3370    1.1310   -1.7650 N.am   83  MET83      -0.1979
     77  CA       -15.7880    2.4140   -1.2120 C.3    83  MET83       0.1605
     78  C        -14.7030    3.4320   -0.8330 C.2    83  MET83       0.2287
     79  O        -14.8120    4.6130   -1.1590 O.2    83  MET83      -0.2864
     80  CB       -16.7180    2.1730   -0.0420 C.3    83  MET83       0.0413
     81  CG       -18.1050    1.8770   -0.4970 C.3    83  MET83       0.0598
     82  SD       -19.1690    1.5920    0.8960 S.3    83  MET83      -0.1393
     83  CE       -20.7530    2.0350    0.1660 C.3    83  MET83       0.0692
     84  N        -13.2730    4.7970   -3.9140 N.3    86  LEU86      -0.1245
     85  CA       -14.1680    5.8270   -4.4580 C.3    86  LEU86       0.1561
     86  C        -13.9370    7.1280   -3.7030 C.2    86  LEU86       0.2260
     87  O        -13.7380    8.1860   -4.2910 O.2    86  LEU86      -0.2867
     88  CB       -15.6350    5.3940   -4.3000 C.3    86  LEU86       0.0270
     89  CG       -16.7540    6.4320   -4.4280 C.3    86  LEU86       0.0019
     90  CD1      -16.8060    6.9700   -5.8480 C.3    86  LEU86       0.0001
     91  CD2      -18.0890    5.8110   -4.0760 C.3    86  LEU86       0.0001
     92  N        -10.6270    8.8450   -4.6970 N.3    89  ARG89      -0.1245
     93  CA       -10.6290    9.5020   -6.0080 C.3    89  ARG89       0.1563
     94  C        -11.4110   10.8040   -5.9710 C.2    89  ARG89       0.2260
     95  O        -11.1410   11.7160   -6.7450 O.2    89  ARG89      -0.2867
     96  CB       -11.2300    8.5940   -7.0990 C.3    89  ARG89       0.0307
     97  CG       -10.5580    7.2300   -7.2320 C.3    89  ARG89       0.0489
     98  CD       -11.0450    6.4610   -8.4610 C.3    89  ARG89       0.2205
     99  NE       -12.4630    6.0890   -8.4230 N.pl3  89  ARG89      -0.0865
    100  CZ       -12.9190    4.9290   -7.9600 C.cat  89  ARG89       0.5346
    101  NH1      -14.2170    4.6750   -7.9830 N.pl3  89  ARG89       0.1354
    102  NH2      -12.0770    4.0210   -7.4670 N.pl3  89  ARG89       0.1354
    103  N        -16.9780    8.0210   -9.5070 N.3    99  PHE99      -0.1241
    104  CA       -17.0580    6.5790   -9.6850 C.3    99  PHE99       0.1605
    105  C        -16.0930    6.1710  -10.7870 C.2    99  PHE99       0.2264
    106  O        -15.5150    5.0840  -10.7650 O.2    99  PHE99      -0.2867
    107  CB       -18.4970    6.1440  -10.0020 C.3    99  PHE99       0.0534
    108  CG       -19.4170    6.1940   -8.8100 C.ar   99  PHE99      -0.0203
    109  CD1      -20.1570    7.3390   -8.5330 C.ar   99  PHE99      -0.0042
    110  CD2      -19.5280    5.0950   -7.9540 C.ar   99  PHE99      -0.0042
    111  CE1      -21.0040    7.3960   -7.4250 C.ar   99  PHE99      -0.0003
    112  CE2      -20.3730    5.1330   -6.8450 C.ar   99  PHE99      -0.0003
    113  CZ       -21.1090    6.2970   -6.5730 C.ar   99  PHE99      -0.0000
    114  N        -30.6500    5.2680   -2.6460 N.3   115  MET115     -0.1245
    115  CA       -29.2240    5.4810   -2.8560 C.3   115  MET115      0.1570
    116  C        -28.7070    6.8170   -2.3280 C.2   115  MET115      0.2261
    117  O        -27.5030    6.9740   -2.1080 O.2   115  MET115     -0.2867
    118  CB       -28.8770    5.3540   -4.3380 C.3   115  MET115      0.0387
    119  CG       -27.3880    5.2480   -4.6090 C.3   115  MET115      0.0595
    120  SD       -27.0380    4.8120   -6.3140 S.3   115  MET115     -0.1393
    121  CE       -27.4330    6.3430   -7.1510 C.3   115  MET115      0.0692
    122  N        -26.6570    6.8580    0.9800 N.3   118  ILE118     -0.1231
    123  CA       -25.3370    6.2740    0.8160 C.3   118  ILE118      0.1692
    124  C        -24.3470    7.2720    0.1940 C.2   118  ILE118      0.2592
    125  O        -23.1740    7.3150    0.5900 O.2   118  ILE118     -0.2718
    126  CB       -25.3930    4.9630   -0.0240 C.3   118  ILE118      0.0266
    127  CG1      -26.2810    3.8970    0.6490 C.3   118  ILE118      0.0019
    128  CG2      -24.0040    4.3940   -0.1670 C.3   118  ILE118      0.0020
    129  CD1      -27.2510    4.4600    1.6850 C.3   118  ILE118      0.0001
    130  N        -24.8290    8.0670   -0.7650 N.am  119  PHE119     -0.1976
    131  CA       -24.0290    9.1160   -1.4000 C.3   119  PHE119      0.1639
    132  C        -23.5900   10.1710   -0.3890 C.2   119  PHE119      0.2290
    133  O        -22.4490   10.6470   -0.4290 O.2   119  PHE119     -0.2864
    134  CB       -24.8240    9.8060   -2.5160 C.3   119  PHE119      0.0560
    135  CG       -24.6200    9.2100   -3.8920 C.ar  119  PHE119     -0.0200
    136  CD1      -24.3980   10.0400   -4.9910 C.ar  119  PHE119     -0.0042
    137  CD2      -24.6620    7.8280   -4.0930 C.ar  119  PHE119     -0.0042
    138  CE1      -24.2200    9.5080   -6.2580 C.ar  119  PHE119     -0.0003
    139  CE2      -24.4830    7.2840   -5.3620 C.ar  119  PHE119     -0.0003
    140  CZ       -24.2680    8.1210   -6.4410 C.ar  119  PHE119     -0.0000
    141  N        -20.8280    8.7620    1.7520 N.3   122  LEU122     -0.1245
    142  CA       -19.6290    8.7040    0.9290 C.3   122  LEU122      0.1561
    143  C        -19.0580   10.1060    0.6840 C.2   122  LEU122      0.2260
    144  O        -17.8390   10.2900    0.6980 O.2   122  LEU122     -0.2867
    145  CB       -19.8870    7.9540   -0.3820 C.3   122  LEU122      0.0270
    146  CG       -20.1380    6.4410   -0.2680 C.3   122  LEU122      0.0019
    147  CD1      -20.7750    5.8500   -1.5390 C.3   122  LEU122      0.0001
    148  CD2      -18.8650    5.6930    0.0670 C.3   122  LEU122      0.0001
    149  N        -24.6870   -0.1800    2.3280 N.3   208  GLY208     -0.1225
    150  CA       -24.6140   -0.3190    0.8840 C.3   208  GLY208      0.1811
    151  C        -24.9700   -1.7320    0.4830 C.2   208  GLY208      0.2280
    152  O        -25.7780   -1.9410   -0.4130 O.2   208  GLY208     -0.2866
    153  N        -28.5360   -2.1990    0.3170 N.3   211  HIS211     -0.1226
    154  CA       -29.0980   -1.5020   -0.8230 C.3   211  HIS211      0.1752
    155  C        -29.0070   -2.3630   -2.0860 C.2   211  HIS211      0.2595
    156  O        -29.9500   -2.4340   -2.8730 O.2   211  HIS211     -0.2718
    157  CB       -28.3710   -0.1770   -1.0310 C.3   211  HIS211      0.0759
    158  CG       -28.9050    0.6190   -2.1730 C.ar  211  HIS211      0.0818
    159  ND1      -30.0990    1.3010   -2.1060 N.ar  211  HIS211     -0.2268
    160  CD2      -28.4260    0.8180   -3.4210 C.ar  211  HIS211      0.1154
    161  CE1      -30.3260    1.9000   -3.2610 C.ar  211  HIS211      0.1986
    162  NE2      -29.3290    1.6180   -4.0780 N.ar  211  HIS211     -0.2212
    163  N        -27.8590   -3.0080   -2.2670 N.am  212  LEU212     -0.1980
    164  CA       -27.6080   -3.8630   -3.4160 C.3   212  LEU212      0.1596
    165  C        -28.5490   -5.0620   -3.4010 C.2   212  LEU212      0.2287
    166  O        -29.1880   -5.3710   -4.4010 O.2   212  LEU212     -0.2864
    167  CB       -26.1580   -4.3470   -3.3850 C.3   212  LEU212      0.0297
    168  CG       -25.2870   -4.1790   -4.6270 C.3   212  LEU212      0.0022
    169  CD1      -23.9970   -4.9340   -4.4140 C.3   212  LEU212      0.0001
    170  CD2      -26.0010   -4.6600   -5.8810 C.3   212  LEU212      0.0001
    171  N        -20.5730  -10.2930   -8.7730 N.3   226  LEU226     -0.1245
    172  CA       -21.3110   -9.4350   -7.8710 C.3   226  LEU226      0.1561
    173  C        -22.2630  -10.2470   -7.0200 C.2   226  LEU226      0.2260
    174  O        -22.2730  -10.1230   -5.7950 O.2   226  LEU226     -0.2867
    175  CB       -22.0950   -8.3870   -8.6440 C.3   226  LEU226      0.0270
    176  CG       -21.4540   -7.0070   -8.7200 C.3   226  LEU226      0.0019
    177  CD1      -22.4670   -6.0050   -9.2310 C.3   226  LEU226      0.0001
    178  CD2      -20.9400   -6.5920   -7.3540 C.3   226  LEU226      0.0001
@<TRIPOS>BOND
     1    24    25    1
     2    30    29    1
     3    25    28    1
     4    25    26    1
     5    28    29    1
     6     9    10    1
     7    22    21    1
     8     3     4    2
     9     3     2    1
    10    29    31    1
    11    19    20    2
    12    19    18    1
    13    27    26    2
    14    26    32   am
    15     1     2    1
    16    37    38    1
    17    10    11    1
    18    10    13    1
    19    17    18    1
    20    17    11   am
    21     2     5    1
    22    18    21    1
    23    21    23    1
    24    11    12    2
    25     5     6    1
    26    32    33    1
    27   105   106    2
    28   105   104    1
    29    38    41    1
    30    38    39    1
    31    14    16    1
    32    14    13    1
    33    14    15    1
    34    42    41    1
    35    42    43    1
    36    34    33    1
    37    34    35    2
    38   107   104    1
    39   107   108    1
    40   104   103    1
    41    33    36    1
    42     6     7    1
    43    39    40    2
    44    43    44   ar
    45    43    45   ar
    46   177   176    1
    47   108   109   ar
    48   108   110   ar
    49   171   172    1
    50   176   175    1
    51   176   178    1
    52   175   172    1
    53   109   111   ar
    54    98    99    1
    55    98    97    1
    56    99   100    2
    57     7     8    1
    58   101   100    1
    59   100   102    1
    60   110   112   ar
    61   172   173    1
    62   111   113   ar
    63    97    96    1
    64   121   120    1
    65    96    93    1
    66   173   174    2
    67   112   113   ar
    68    95    94    2
    69   140   138   ar
    70   140   139   ar
    71   120   119    1
    72   138   136   ar
    73    93    94    1
    74    93    92    1
    75   170   168    1
    76    90    89    1
    77    75    73    1
    78    74    73    1
    79   139   137   ar
    80    73    72    1
    81   136   135   ar
    82   168   169    1
    83   168   167    1
    84   119   118    1
    85    85    88    1
    86    85    84    1
    87    85    86    1
    88    89    88    1
    89    89    91    1
    90   166   165    2
    91    58    59   ar
    92    58    56   ar
    93   118   115    1
    94    87    86    2
    95   137   135   ar
    96   162   160   ar
    97   162   161   ar
    98    72    69    1
    99   135   134    1
   100    59    57   ar
   101    56    53   ar
   102    71    70    2
   103    69    70    1
   104    69    68    1
   105   160   158   ar
   106   164   165    1
   107   164   167    1
   108   164   163    1
   109   161   159   ar
   110    70    76   am
   111   156   155    2
   112   115   114    1
   113   115   116    1
   114    57    55   ar
   115    53    55   ar
   116    53    51   ar
   117   134   131    1
   118    66    65    1
   119   116   117    2
   120    55    54   ar
   121   163   155   am
   122   158   159   ar
   123   158   157    1
   124    50    51    1
   125    50    47    1
   126   155   154    1
   127    49    48    2
   128    51    52   ar
   129    76    77    1
   130   147   146    1
   131   131   130    1
   132   131   132    1
   133    48    47    1
   134    48    60   am
   135    54    52   ar
   136    77    78    1
   137    77    80    1
   138    79    78    2
   139    47    46    1
   140   157   154    1
   141    65    64    1
   142    65    67    1
   143    61    64    1
   144    61    60    1
   145    61    62    1
   146   154   153    1
   147   130   124   am
   148    63    62    2
   149    81    80    1
   150    81    82    1
   151   133   132    2
   152   152   151    2
   153   145   146    1
   154   145   142    1
   155   146   148    1
   156   128   126    1
   157   126   127    1
   158   126   123    1
   159    83    82    1
   160   124   125    2
   161   124   123    1
   162   151   150    1
   163   127   129    1
   164   143   144    2
   165   143   142    1
   166   123   122    1
   167   150   149    1
   168   142   141    1
