@<TRIPOS>MOLECULE
tmp/2g46C00.pdb
 126 129 0 0 0
SMALL
GASTEIGER

@<TRIPOS>ATOM
      1  N         11.7040   -3.1460   11.4730 N.3    16  TYR16      -0.1241
      2  CA        10.4790   -3.5400   10.7220 C.3    16  TYR16       0.1605
      3  C         10.8340   -3.9160    9.2820 C.2    16  TYR16       0.2264
      4  O         10.3900   -3.2920    8.3390 O.2    16  TYR16      -0.2867
      5  CB         9.5840   -2.3010   10.7470 C.3    16  TYR16       0.0534
      6  CG         8.8420   -2.2460   12.0610 C.ar   16  TYR16      -0.0201
      7  CD1        9.4950   -1.8000   13.2160 C.ar   16  TYR16      -0.0009
      8  CD2        7.5030   -2.6500   12.1260 C.ar   16  TYR16      -0.0009
      9  CE1        8.8080   -1.7520   14.4340 C.ar   16  TYR16       0.0417
     10  CE2        6.8160   -2.6030   13.3450 C.ar   16  TYR16       0.0417
     11  CZ         7.4690   -2.1540   14.4990 C.ar   16  TYR16       0.1957
     12  OH         6.7920   -2.1070   15.7010 O.3    16  TYR16      -0.2866
     13  N          8.5810   10.0690    3.7100 N.3    49  ASP49      -0.1225
     14  CA         8.9280    8.9020    4.5740 C.3    49  ASP49       0.1805
     15  C          9.1070    7.6440    3.7220 C.2    49  ASP49       0.2597
     16  O         10.1990    7.1310    3.5750 O.2    49  ASP49      -0.2718
     17  CB         7.7320    8.7300    5.5170 C.3    49  ASP49       0.1424
     18  CG         8.2340    8.5690    6.9530 C.2    49  ASP49       0.3668
     19  OD1        9.3650    8.1530    7.1480 O.co2  49  ASP49      -0.2456
     20  OD2        7.4960    8.8580    7.8800 O.co2  49  ASP49      -0.2456
     21  N          8.0400    7.1390    3.1640 N.am   50  TYR50      -0.1976
     22  CA         8.1440    5.9070    2.3290 C.3    50  TYR50       0.1639
     23  C          7.8030    6.2280    0.8730 C.2    50  TYR50       0.2290
     24  O          6.8550    5.7080    0.3170 O.2    50  TYR50      -0.2864
     25  CB         7.1070    4.9410    2.9140 C.3    50  TYR50       0.0560
     26  CG         7.3360    4.7830    4.4000 C.ar   50  TYR50      -0.0198
     27  CD1        8.6230    4.5280    4.8880 C.ar   50  TYR50      -0.0009
     28  CD2        6.2620    4.9070    5.2900 C.ar   50  TYR50      -0.0009
     29  CE1        8.8350    4.3890    6.2650 C.ar   50  TYR50       0.0417
     30  CE2        6.4740    4.7680    6.6670 C.ar   50  TYR50       0.0417
     31  CZ         7.7600    4.5090    7.1550 C.ar   50  TYR50       0.1957
     32  OH         7.9690    4.3730    8.5120 O.3    50  TYR50      -0.2866
     33  N          8.2210    0.0490    1.4210 N.3    66  ALA66      -0.1231
     34  CA         8.8370    0.8950    2.4820 C.3    66  ALA66       0.1694
     35  C          9.4870    0.0170    3.5540 C.2    66  ALA66       0.2592
     36  O         10.6320    0.2080    3.9150 O.2    66  ALA66      -0.2718
     37  CB         7.6680    1.6820    3.0760 C.3    66  ALA66       0.0304
     38  N          8.7700   -0.9600    4.0450 N.am   67  ILE67      -0.1966
     39  CA         9.3280   -1.8530    5.1090 C.3    67  ILE67       0.1727
     40  C         10.7550   -2.3070    4.7790 C.2    67  ILE67       0.2616
     41  O         11.5230   -2.6350    5.6610 O.2    67  ILE67      -0.2715
     42  CB         8.3840   -3.0660    5.1790 C.3    67  ILE67       0.0290
     43  CG1        8.1000   -3.6280    3.7770 C.3    67  ILE67       0.0022
     44  CG2        7.0670   -2.6410    5.8310 C.3    67  ILE67       0.0023
     45  CD1        9.3230   -4.3880    3.2650 C.3    67  ILE67       0.0001
     46  N         11.1280   -2.3140    3.5290 N.am   68  PHE68      -0.1960
     47  CA        12.5100   -2.7450    3.1780 C.3    68  PHE68       0.1771
     48  C         13.5320   -1.7990    3.8150 C.2    68  PHE68       0.2620
     49  O         13.6590   -0.6540    3.4290 O.2    68  PHE68      -0.2715
     50  CB        12.5780   -2.6600    1.6520 C.3    68  PHE68       0.0574
     51  CG        11.7610   -3.7760    1.0400 C.ar   68  PHE68      -0.0200
     52  CD1       11.8670   -5.0820    1.5370 C.ar   68  PHE68      -0.0042
     53  CD2       10.9050   -3.5050   -0.0340 C.ar   68  PHE68      -0.0042
     54  CE1       11.1120   -6.1130    0.9640 C.ar   68  PHE68      -0.0003
     55  CE2       10.1510   -4.5370   -0.6070 C.ar   68  PHE68      -0.0003
     56  CZ        10.2540   -5.8400   -0.1070 C.ar   68  PHE68      -0.0000
     57  N         14.2540   -2.2670    4.7970 N.am   69  ASN69      -0.1958
     58  CA        15.2570   -1.3930    5.4720 C.3    69  ASN69       0.1819
     59  C         16.5590   -1.3440    4.6700 C.2    69  ASN69       0.2621
     60  O         16.6650   -1.9100    3.6010 O.2    69  ASN69      -0.2715
     61  CB        15.5000   -2.0580    6.8280 C.3    69  ASN69       0.1195
     62  CG        14.2430   -1.9340    7.6910 C.2    69  ASN69       0.2630
     63  OD1       13.6490   -0.8780    7.7710 O.2    69  ASN69      -0.2716
     64  ND2       13.8120   -2.9770    8.3460 N.am   69  ASN69      -0.0877
     65  N         17.5520   -0.6700    5.1830 N.am   70  HIS70      -0.1973
     66  CA        18.8550   -0.5960    4.4640 C.3    70  HIS70       0.1656
     67  C         19.8670   -1.5410    5.1150 C.2    70  HIS70       0.2291
     68  O         20.1940   -1.4090    6.2770 O.2    70  HIS70      -0.2864
     69  CB        19.3080    0.8570    4.6180 C.3    70  HIS70       0.0771
     70  CG        20.1420    1.2500    3.4300 C.ar   70  HIS70       0.0820
     71  ND1       20.5600    2.5550    3.2190 N.ar   70  HIS70      -0.2267
     72  CD2       20.6450    0.5210    2.3810 C.ar   70  HIS70       0.1154
     73  CE1       21.2800    2.5710    2.0830 C.ar   70  HIS70       0.1986
     74  NE2       21.3630    1.3570    1.5310 N.ar   70  HIS70      -0.2212
     75  N         19.0250    2.1910   -1.3400 N.3   105  TYR105     -0.1241
     76  CA        18.3310    3.4480   -1.7360 C.3   105  TYR105      0.1605
     77  C         18.9660    4.0300   -3.0000 C.2   105  TYR105      0.2264
     78  O         18.4730    3.8380   -4.0940 O.2   105  TYR105     -0.2867
     79  CB        18.5250    4.3930   -0.5490 C.3   105  TYR105      0.0534
     80  CG        17.6500    3.9390    0.5940 C.ar  105  TYR105     -0.0201
     81  CD1       16.3010    3.6420    0.3670 C.ar  105  TYR105     -0.0009
     82  CD2       18.1880    3.8110    1.8800 C.ar  105  TYR105     -0.0009
     83  CE1       15.4890    3.2190    1.4250 C.ar  105  TYR105      0.0417
     84  CE2       17.3760    3.3870    2.9390 C.ar  105  TYR105      0.0417
     85  CZ        16.0270    3.0920    2.7120 C.ar  105  TYR105      0.1957
     86  OH        15.2260    2.6750    3.7550 O.3   105  TYR105     -0.2866
     87  N         18.9430    9.3060    0.2790 N.3   109  TYR109     -0.1227
     88  CA        18.8190    8.2880    1.3660 C.3   109  TYR109      0.1736
     89  C         20.1910    7.7190    1.7510 C.2   109  TYR109      0.2595
     90  O         20.6670    6.7660    1.1650 O.2   109  TYR109     -0.2718
     91  CB        17.9340    7.1940    0.7710 C.3   109  TYR109      0.0548
     92  CG        16.5100    7.3960    1.2290 C.ar  109  TYR109     -0.0200
     93  CD1       15.8150    8.5560    0.8650 C.ar  109  TYR109     -0.0009
     94  CD2       15.8850    6.4250    2.0200 C.ar  109  TYR109     -0.0009
     95  CE1       14.4950    8.7440    1.2910 C.ar  109  TYR109      0.0417
     96  CE2       14.5640    6.6130    2.4460 C.ar  109  TYR109      0.0417
     97  CZ        13.8700    7.7730    2.0810 C.ar  109  TYR109      0.1957
     98  OH        12.5680    7.9580    2.5010 O.3   109  TYR109     -0.2866
     99  N         20.8280    8.3070    2.7270 N.am  110  TRP110     -0.1962
    100  CA        22.1730    7.8120    3.1540 C.3   110  TRP110      0.1771
    101  C         22.0310    6.6400    4.1300 C.2   110  TRP110      0.2619
    102  O         21.0450    6.5140    4.8290 O.2   110  TRP110     -0.2715
    103  CB        22.8610    9.0120    3.8250 C.3   110  TRP110      0.0590
    104  CG        21.9860    9.5820    4.8960 C.ar  110  TRP110      0.0006
    105  CD1       21.2960   10.7430    4.8030 C.ar  110  TRP110      0.0946
    106  CD2       21.6870    9.0340    6.2070 C.ar  110  TRP110      0.0152
    107  NE1       20.5960   10.9410    5.9800 N.ar  110  TRP110     -0.2442
    108  CE2       20.8060    9.9130    6.8770 C.ar  110  TRP110      0.0810
    109  CE3       22.0970    7.8720    6.8730 C.ar  110  TRP110      0.0012
    110  CZ2       20.3460    9.6430    8.1670 C.ar  110  TRP110      0.0191
    111  CZ3       21.6390    7.5940    8.1660 C.ar  110  TRP110      0.0001
    112  CH2       20.7640    8.4780    8.8150 C.ar  110  TRP110      0.0015
    113  N         22.9990    5.7600    4.1530 N.am  111  LEU111     -0.1963
    114  CA        22.9210    4.5760    5.0570 C.3   111  LEU111      0.1728
    115  C         23.5330    4.8990    6.4240 C.2   111  LEU111      0.2616
    116  O         22.8290    5.1520    7.3800 O.2   111  LEU111     -0.2715
    117  CB        23.7310    3.4890    4.3410 C.3   111  LEU111      0.0311
    118  CG        23.8120    2.2370    5.2180 C.3   111  LEU111      0.0022
    119  CD1       22.8490    1.1760    4.6840 C.3   111  LEU111      0.0001
    120  CD2       25.2400    1.6890    5.1890 C.3   111  LEU111      0.0001
    121  N         24.8350    4.8900    6.5300 N.am  112  SER112     -0.1950
    122  CA        25.4780    5.2040    7.8400 C.3   112  SER112      0.1924
    123  C         27.0030    5.2110    7.7020 C.2   112  SER112      0.2314
    124  O         27.6180    6.2500    7.5660 O.2   112  SER112     -0.2863
    125  CB        25.0320    4.0820    8.7820 C.3   112  SER112      0.2116
    126  OG        25.8430    4.0920    9.9470 O.3   112  SER112     -0.2180
@<TRIPOS>BOND
     1    78    77    2
     2    77    76    1
     3    76    75    1
     4    76    79    1
     5    55    56   ar
     6    55    53   ar
     7    79    80    1
     8    56    54   ar
     9    53    51   ar
    10    87    88    1
    11    24    23    2
    12    81    80   ar
    13    81    83   ar
    14    80    82   ar
    15    91    92    1
    16    91    88    1
    17    93    92   ar
    18    93    95   ar
    19    23    22    1
    20    54    52   ar
    21    51    52   ar
    22    51    50    1
    23    90    89    2
    24    92    94   ar
    25    95    97   ar
    26    88    89    1
    27    33    34    1
    28    83    85   ar
    29    74    73   ar
    30    74    72   ar
    31    50    47    1
    32    89    99   am
    33    82    84   ar
    34    94    96   ar
    35    97    96   ar
    36    97    98    1
    37    73    71   ar
    38    22    25    1
    39    22    21    1
    40    72    70   ar
    41    34    37    1
    42    34    35    1
    43    85    84   ar
    44    85    86    1
    45    99   100    1
    46    25    26    1
    47   100   103    1
    48   100   101    1
    49    21    15   am
    50    47    46    1
    51    47    48    1
    52    71    70   ar
    53    45    43    1
    54    49    48    2
    55    70    69    1
    56    46    40   am
    57    35    36    2
    58    35    38   am
    59    16    15    2
    60    60    59    2
    61    13    14    1
    62    15    14    1
    63    43    42    1
    64    48    57   am
    65   103   104    1
    66    38    39    1
    67   101   113   am
    68   101   102    2
    69   113   114    1
    70   117   114    1
    71   117   118    1
    72    26    27   ar
    73    26    28   ar
    74    66    69    1
    75    66    67    1
    76    66    65    1
    77    14    17    1
    78    59    65   am
    79    59    58    1
    80   119   118    1
    81    40    39    1
    82    40    41    2
    83    57    58    1
    84   105   104   ar
    85   105   107   ar
    86    27    29   ar
    87   104   106   ar
    88   114   115    1
    89    39    42    1
    90    67    68    2
    91    42    44    1
    92   120   118    1
    93    28    30   ar
    94    58    61    1
    95    17    18    1
    96   107   108   ar
    97   106   109   ar
    98   106   108   ar
    99    29    31   ar
   100   115   121   am
   101   115   116    2
   102   121   122    1
   103    30    31   ar
   104    61    62    1
   105   109   111   ar
   106   108   110   ar
   107    18    19   ar
   108    18    20   ar
   109    31    32    1
   110   124   123    2
   111    62    63    2
   112    62    64   am
   113   123   122    1
   114   122   125    1
   115   111   112   ar
   116   110   112   ar
   117     4     3    2
   118   125   126    1
   119     3     2    1
   120     2     5    1
   121     2     1    1
   122     5     6    1
   123     6     8   ar
   124     6     7   ar
   125     8    10   ar
   126     7     9   ar
   127    10    11   ar
   128     9    11   ar
   129    11    12    1
