@<TRIPOS>MOLECULE
tmp/2g47A00.pdb
 250 245 0 0 0
SMALL
GASTEIGER

@<TRIPOS>ATOM
      1  N        106.9460   -6.7290  -31.5830 N.3    64  HIS64      -0.1241
      2  CA       106.2880   -5.5760  -30.9710 C.3    64  HIS64       0.1621
      3  C        105.3800   -4.9320  -32.0070 C.2    64  HIS64       0.2264
      4  O        104.2800   -4.4720  -31.6920 O.2    64  HIS64      -0.2867
      5  CB       107.3100   -4.5330  -30.5000 C.3    64  HIS64       0.0745
      6  CG       106.6880   -3.3460  -29.8300 C.ar   64  HIS64       0.0817
      7  ND1      107.1760   -2.0630  -29.9780 N.ar   64  HIS64      -0.2268
      8  CD2      105.6180   -3.2490  -29.0050 C.ar   64  HIS64       0.1154
      9  CE1      106.4290   -1.2290  -29.2750 C.ar   64  HIS64       0.1986
     10  NE2      105.4790   -1.9210  -28.6750 N.ar   64  HIS64      -0.2212
     11  N        102.2790   -6.8440  -32.3650 N.3    67  GLN67      -0.1231
     12  CA       101.3920   -6.5050  -31.2600 C.3    67  GLN67       0.1698
     13  C        100.5320   -5.2690  -31.5670 C.2    67  GLN67       0.2592
     14  O         99.3240   -5.2710  -31.3260 O.2    67  GLN67      -0.2718
     15  CB       102.2080   -6.2580  -29.9960 C.3    67  GLN67       0.0381
     16  CG       101.3580   -5.8750  -28.8040 C.3    67  GLN67       0.0905
     17  CD       102.0120   -4.8110  -27.9460 C.2    67  GLN67       0.2608
     18  OE1      103.0030   -5.0650  -27.2620 O.2    67  GLN67      -0.2717
     19  NE2      101.4630   -3.6020  -27.9900 N.am   67  GLN67      -0.0878
     20  N        101.1530   -4.2130  -32.0880 N.am   68  HIS68      -0.1976
     21  CA       100.4180   -2.9920  -32.4310 C.3    68  HIS68       0.1656
     22  C         99.3790   -3.2700  -33.5110 C.2    68  HIS68       0.2291
     23  O         98.2300   -2.8380  -33.4160 O.2    68  HIS68      -0.2864
     24  CB       101.3640   -1.9030  -32.9620 C.3    68  HIS68       0.0771
     25  CG       102.0640   -1.1250  -31.8940 C.ar   68  HIS68       0.0820
     26  ND1      101.9230    0.2400  -31.7600 N.ar   68  HIS68      -0.2267
     27  CD2      102.9220   -1.5140  -30.9220 C.ar   68  HIS68       0.1154
     28  CE1      102.6660    0.6580  -30.7500 C.ar   68  HIS68       0.1986
     29  NE2      103.2830   -0.3870  -30.2250 N.ar   68  HIS68      -0.2212
     30  N         95.5910   -4.7510  -33.1800 N.3    71  PHE71      -0.1227
     31  CA        94.4970   -3.8980  -32.7180 C.3    71  PHE71       0.1736
     32  C         93.7750   -3.2020  -33.8620 C.2    71  PHE71       0.2595
     33  O         92.6950   -2.6520  -33.6650 O.2    71  PHE71      -0.2718
     34  CB        95.0140   -2.7900  -31.7840 C.3    71  PHE71       0.0547
     35  CG        95.4270   -3.2670  -30.4220 C.ar   71  PHE71      -0.0202
     36  CD1       96.6880   -3.8140  -30.2120 C.ar   71  PHE71      -0.0042
     37  CD2       94.5530   -3.1540  -29.3410 C.ar   71  PHE71      -0.0042
     38  CE1       97.0790   -4.2380  -28.9420 C.ar   71  PHE71      -0.0003
     39  CE2       94.9340   -3.5770  -28.0670 C.ar   71  PHE71      -0.0003
     40  CZ        96.2010   -4.1200  -27.8690 C.ar   71  PHE71      -0.0000
     41  N         94.3660   -3.2320  -35.0530 N.am   72  LEU72      -0.1980
     42  CA        93.8120   -2.5070  -36.1860 C.3    72  LEU72       0.1596
     43  C         92.9750   -3.2230  -37.2420 C.2    72  LEU72       0.2287
     44  O         92.9220   -2.7750  -38.3910 O.2    72  LEU72      -0.2864
     45  CB        94.9520   -1.7450  -36.8690 C.3    72  LEU72       0.0297
     46  CG        95.9040   -1.0240  -35.9010 C.3    72  LEU72       0.0022
     47  CD1       96.9310   -0.2190  -36.6950 C.3    72  LEU72       0.0001
     48  CD2       95.1180   -0.1080  -34.9630 C.3    72  LEU72       0.0001
     49  N         91.5430   -1.3800  -22.9990 N.3    94  SER94      -0.1202
     50  CA        92.4430   -2.4290  -23.4460 C.3    94  SER94       0.2020
     51  C         93.8700   -1.9290  -23.6160 C.2    94  SER94       0.2619
     52  O         94.1150   -0.7240  -23.7280 O.2    94  SER94      -0.2717
     53  CB        91.9490   -3.0050  -24.7730 C.3    94  SER94       0.2103
     54  OG        92.7800   -4.0650  -25.2060 O.3    94  SER94      -0.2182
     55  N         94.8050   -2.8710  -23.6190 N.am   95  ASN95      -0.1960
     56  CA        96.2140   -2.5750  -23.8200 C.3    95  ASN95       0.1819
     57  C         96.8980   -3.9150  -24.0490 C.2    95  ASN95       0.2621
     58  O         96.2470   -4.9650  -24.0560 O.2    95  ASN95      -0.2715
     59  CB        96.8300   -1.8800  -22.5980 C.3    95  ASN95       0.1195
     60  CG        97.9150   -0.8640  -22.9820 C.2    95  ASN95       0.2630
     61  OD1       98.6240   -1.0290  -23.9850 O.2    95  ASN95      -0.2716
     62  ND2       98.0530    0.1870  -22.1740 N.am   95  ASN95      -0.0877
     63  N         98.2070   -3.8710  -24.2500 N.am   96  ALA96      -0.1963
     64  CA        98.9840   -5.0750  -24.4680 C.3    96  ALA96       0.1728
     65  C        100.4480   -4.7070  -24.3390 C.2    96  ALA96       0.2616
     66  O        100.8090   -3.5360  -24.4770 O.2    96  ALA96      -0.2715
     67  CB        98.7090   -5.6340  -25.8590 C.3    96  ALA96       0.0334
     68  N        101.2860   -5.6970  -24.0470 N.am   97  PHE97      -0.1960
     69  CA       102.7140   -5.4460  -23.9480 C.3    97  PHE97       0.1771
     70  C        103.5080   -6.5820  -24.5580 C.2    97  PHE97       0.2620
     71  O        103.0000   -7.6890  -24.7390 O.2    97  PHE97      -0.2715
     72  CB       103.1660   -5.2180  -22.4930 C.3    97  PHE97       0.0574
     73  CG       103.0250   -6.4200  -21.5880 C.ar   97  PHE97      -0.0200
     74  CD1      101.9320   -6.5400  -20.7350 C.ar   97  PHE97      -0.0042
     75  CD2      104.0110   -7.3980  -21.5460 C.ar   97  PHE97      -0.0042
     76  CE1      101.8260   -7.6160  -19.8470 C.ar   97  PHE97      -0.0003
     77  CE2      103.9150   -8.4790  -20.6610 C.ar   97  PHE97      -0.0003
     78  CZ       102.8200   -8.5840  -19.8120 C.ar   97  PHE97      -0.0000
     79  N        104.7610   -6.2850  -24.8750 N.am   98  THR98      -0.1937
     80  CA       105.6730   -7.2530  -25.4510 C.3    98  THR98       0.2028
     81  C        106.9650   -7.2880  -24.6390 C.2    98  THR98       0.2642
     82  O        107.5890   -6.2490  -24.3950 O.2    98  THR98      -0.2714
     83  CB       106.0380   -6.8860  -26.8990 C.3    98  THR98       0.1808
     84  OG1      104.8510   -6.8370  -27.6990 O.3    98  THR98      -0.2208
     85  CG2      106.9970   -7.9190  -27.4810 C.3    98  THR98       0.0379
     86  N        107.3460   -8.4780  -24.1950 N.am   99  SER99      -0.1949
     87  CA       108.5910   -8.6500  -23.4550 C.3    99  SER99       0.1924
     88  C        109.4560   -9.5530  -24.3410 C.2    99  SER99       0.2314
     89  O        109.1340   -9.7690  -25.5130 O.2    99  SER99      -0.2863
     90  CB       108.3390   -9.3140  -22.0970 C.3    99  SER99       0.2116
     91  OG       107.7570  -10.6010  -22.2510 O.3    99  SER99      -0.2180
     92  N         95.0780   -7.7860  -23.3400 N.3   106  TYR106     -0.1241
     93  CA        94.0280   -7.8130  -22.3320 C.3   106  TYR106      0.1605
     94  C         93.0470   -6.6580  -22.4410 C.2   106  TYR106      0.2264
     95  O         93.3580   -5.6160  -23.0140 O.2   106  TYR106     -0.2867
     96  CB        94.6630   -7.8210  -20.9410 C.3   106  TYR106      0.0534
     97  CG        95.7330   -6.7660  -20.7610 C.ar  106  TYR106     -0.0201
     98  CD1       95.4040   -5.4600  -20.4010 C.ar  106  TYR106     -0.0009
     99  CD2       97.0760   -7.0700  -20.9780 C.ar  106  TYR106     -0.0009
    100  CE1       96.3830   -4.4820  -20.2590 C.ar  106  TYR106      0.0417
    101  CE2       98.0720   -6.1010  -20.8410 C.ar  106  TYR106      0.0417
    102  CZ        97.7150   -4.8060  -20.4800 C.ar  106  TYR106      0.1957
    103  OH        98.6920   -3.8470  -20.3410 O.3   106  TYR106     -0.2866
    104  N        100.9920    2.9830  -38.5720 N.3   138  GLU138     -0.1245
    105  CA       101.3840    2.5370  -37.2400 C.3   138  GLU138      0.1567
    106  C        102.8910    2.4180  -36.9980 C.2   138  GLU138      0.2260
    107  O        103.3310    2.4440  -35.8470 O.2   138  GLU138     -0.2867
    108  CB       100.6920    1.2130  -36.8980 C.3   138  GLU138      0.0388
    109  CG       100.7570    0.8580  -35.4120 C.3   138  GLU138      0.1160
    110  CD       100.0230    1.8620  -34.5200 C.2   138  GLU138      0.3649
    111  OE1      100.1170    1.7420  -33.2770 O.co2 138  GLU138     -0.2457
    112  OE2       99.3470    2.7680  -35.0550 O.co2 138  GLU138     -0.2457
    113  N        107.4010    5.7740  -30.0820 N.3   145  GLU145     -0.1245
    114  CA       107.5150    5.0980  -28.8010 C.3   145  GLU145      0.1567
    115  C        108.9840    4.9140  -28.4220 C.2   145  GLU145      0.2260
    116  O        109.3670    5.0740  -27.2580 O.2   145  GLU145     -0.2867
    117  CB       106.8240    3.7370  -28.8620 C.3   145  GLU145      0.0388
    118  CG       106.8930    2.9510  -27.5750 C.3   145  GLU145      0.1160
    119  CD       106.1000    1.6550  -27.6510 C.2   145  GLU145      0.3649
    120  OE1      106.0930    0.9000  -26.6530 O.co2 145  GLU145     -0.2457
    121  OE2      105.4810    1.3950  -28.7080 O.co2 145  GLU145     -0.2457
    122  N        110.8380    8.4220  -27.5100 N.3   148  LYS148     -0.1231
    123  CA       110.7240    8.9420  -26.1610 C.3   148  LYS148      0.1693
    124  C        111.6090    8.1820  -25.1720 C.2   148  LYS148      0.2592
    125  O        111.8660    8.6730  -24.0710 O.2   148  LYS148     -0.2718
    126  CB       109.2710    8.9000  -25.6830 C.3   148  LYS148      0.0285
    127  CG       108.7470    7.5140  -25.3660 C.3   148  LYS148      0.0035
    128  CD       107.5240    7.6000  -24.4640 C.3   148  LYS148      0.0206
    129  CE       106.9440    6.2240  -24.1640 C.3   148  LYS148      0.1093
    130  NZ       107.9050    5.3180  -23.4660 N.3   148  LYS148     -0.1314
    131  N        112.0670    6.9890  -25.5510 N.am  149  ASN149     -0.1974
    132  CA       112.9280    6.1950  -24.6750 C.3   149  ASN149      0.1688
    133  C        114.4030    6.4850  -24.9060 C.2   149  ASN149      0.2292
    134  O        115.2300    6.2180  -24.0440 O.2   149  ASN149     -0.2864
    135  CB       112.7210    4.6920  -24.8970 C.3   149  ASN149      0.1181
    136  CG       111.3390    4.2240  -24.5120 C.2   149  ASN149      0.2629
    137  OD1      110.6810    4.8230  -23.6640 O.2   149  ASN149     -0.2716
    138  ND2      110.8970    3.1240  -25.1220 N.am  149  ASN149     -0.0877
    139  N        117.0520    4.6930  -17.9000 N.3   154  ALA154     -0.1231
    140  CA       116.7440    3.2910  -17.6230 C.3   154  ALA154      0.1694
    141  C        116.7920    2.4540  -18.8960 C.2   154  ALA154      0.2592
    142  O        117.3690    1.3700  -18.9060 O.2   154  ALA154     -0.2718
    143  CB       115.3760    3.1610  -16.9610 C.3   154  ALA154      0.0304
    144  N        116.1930    2.9580  -19.9700 N.am  155  TRP155     -0.1976
    145  CA       116.1960    2.2270  -21.2340 C.3   155  TRP155      0.1640
    146  C        117.5890    2.1380  -21.8450 C.2   155  TRP155      0.2290
    147  O        117.9610    1.1050  -22.4140 O.2   155  TRP155     -0.2864
    148  CB       115.2310    2.8690  -22.2330 C.3   155  TRP155      0.0576
    149  CG       113.8020    2.5720  -21.9240 C.ar  155  TRP155      0.0006
    150  CD1      112.9600    3.3090  -21.1450 C.ar  155  TRP155      0.0946
    151  CD2      113.0580    1.4260  -22.3480 C.ar  155  TRP155      0.0152
    152  NE1      111.7390    2.6910  -21.0500 N.ar  155  TRP155     -0.2442
    153  CE2      111.7720    1.5270  -21.7750 C.ar  155  TRP155      0.0810
    154  CE3      113.3600    0.3090  -23.1420 C.ar  155  TRP155      0.0012
    155  CZ2      110.7730    0.5670  -21.9900 C.ar  155  TRP155      0.0191
    156  CZ3      112.3670   -0.6510  -23.3560 C.ar  155  TRP155      0.0001
    157  CH2      111.0920   -0.5170  -22.7720 C.ar  155  TRP155      0.0015
    158  N        119.4190   -0.4880  -20.0550 N.3   158  PHE158     -0.1241
    159  CA       118.7900   -1.7560  -20.4180 C.3   158  PHE158      0.1605
    160  C        119.4130   -2.3000  -21.7050 C.2   158  PHE158      0.2264
    161  O        119.8550   -3.4540  -21.7510 O.2   158  PHE158     -0.2867
    162  CB       117.2790   -1.5390  -20.5920 C.3   158  PHE158      0.0534
    163  CG       116.5380   -2.7300  -21.1490 C.ar  158  PHE158     -0.0203
    164  CD1      116.0950   -2.7310  -22.4750 C.ar  158  PHE158     -0.0042
    165  CD2      116.2560   -3.8320  -20.3490 C.ar  158  PHE158     -0.0042
    166  CE1      115.3760   -3.8190  -22.9970 C.ar  158  PHE158     -0.0003
    167  CE2      115.5380   -4.9270  -20.8600 C.ar  158  PHE158     -0.0003
    168  CZ       115.0970   -4.9160  -22.1830 C.ar  158  PHE158     -0.0000
    169  N        114.6110   -4.8160  -29.0830 N.3   175  GLY175     -0.1210
    170  CA       113.2190   -5.2350  -29.1560 C.3   175  GLY175      0.1956
    171  C        112.1250   -4.2340  -29.4750 C.2   175  GLY175      0.2612
    172  O        111.0410   -4.6240  -29.9050 O.2   175  GLY175     -0.2717
    173  N        112.3870   -2.9510  -29.2800 N.am  176  THR176     -0.1952
    174  CA       111.3680   -1.9430  -29.5380 C.3   176  THR176      0.1897
    175  C        111.1180   -1.7190  -31.0280 C.2   176  THR176      0.2313
    176  O        109.9670   -1.6150  -31.4720 O.2   176  THR176     -0.2863
    177  CB       111.7710   -0.5850  -28.9240 C.3   176  THR176      0.1794
    178  OG1      112.0870   -0.7650  -27.5440 O.3   176  THR176     -0.2208
    179  CG2      110.6340    0.4180  -29.0330 C.3   176  THR176      0.0378
    180  N         91.0710   -6.6490  -14.8790 N.3   387  ARG387     -0.1245
    181  CA        91.9930   -6.5290  -16.0000 C.3   387  ARG387      0.1563
    182  C         93.4190   -6.9570  -15.6760 C.2   387  ARG387      0.2260
    183  O         93.9800   -7.8190  -16.3580 O.2   387  ARG387     -0.2867
    184  CB        92.0000   -5.0990  -16.5450 C.3   387  ARG387      0.0307
    185  CG        92.3170   -5.0550  -18.0320 C.3   387  ARG387      0.0489
    186  CD        92.4360   -3.6440  -18.5620 C.3   387  ARG387      0.2205
    187  NE        93.7210   -3.0430  -18.2300 N.pl3 387  ARG387     -0.0865
    188  CZ        94.1600   -1.9030  -18.7540 C.cat 387  ARG387      0.5346
    189  NH1       93.4080   -1.2470  -19.6290 N.pl3 387  ARG387      0.1354
    190  NH2       95.3570   -1.4300  -18.4220 N.pl3 387  ARG387      0.1354
    191  N         91.9000    9.3450  -29.7850 N.3   776  PHE776     -0.1241
    192  CA        93.0470    8.4620  -29.9690 C.3   776  PHE776      0.1605
    193  C         93.1330    7.9350  -31.4110 C.2   776  PHE776      0.2264
    194  O         94.2090    7.8950  -32.0130 O.2   776  PHE776     -0.2867
    195  CB        92.9430    7.2760  -29.0040 C.3   776  PHE776      0.0534
    196  CG        94.1020    6.3230  -29.0800 C.ar  776  PHE776     -0.0203
    197  CD1       95.2230    6.4970  -28.2720 C.ar  776  PHE776     -0.0042
    198  CD2       94.0780    5.2510  -29.9690 C.ar  776  PHE776     -0.0042
    199  CE1       96.3040    5.6150  -28.3470 C.ar  776  PHE776     -0.0003
    200  CE2       95.1520    4.3630  -30.0550 C.ar  776  PHE776     -0.0003
    201  CZ        96.2670    4.5450  -29.2420 C.ar  776  PHE776     -0.0000
    202  N         96.1930    9.8750  -33.2400 N.3   780  ARG780     -0.1231
    203  CA        97.2890    8.9170  -33.2700 C.3   780  ARG780      0.1694
    204  C         97.1490    7.8990  -34.4020 C.2   780  ARG780      0.2592
    205  O         97.9380    7.8950  -35.3430 O.2   780  ARG780     -0.2718
    206  CB        97.4280    8.1610  -31.9490 C.3   780  ARG780      0.0321
    207  CG        98.3780    6.9780  -32.0980 C.3   780  ARG780      0.0489
    208  CD        98.8620    6.3950  -30.7920 C.3   780  ARG780      0.2205
    209  NE        99.1680    4.9820  -30.9740 N.pl3 780  ARG780     -0.0865
    210  CZ        99.7210    4.2000  -30.0540 C.cat 780  ARG780      0.5346
    211  NH1      100.0470    4.6940  -28.8650 N.pl3 780  ARG780      0.1354
    212  NH2       99.9280    2.9140  -30.3210 N.pl3 780  ARG780      0.1354
    213  N         96.1440    7.0350  -34.3130 N.am  781  THR781     -0.1953
    214  CA        95.9520    6.0080  -35.3300 C.3   781  THR781      0.1897
    215  C         95.8920    6.5460  -36.7600 C.2   781  THR781      0.2313
    216  O         96.6320    6.0770  -37.6260 O.2   781  THR781     -0.2863
    217  CB        94.7030    5.1810  -35.0370 C.3   781  THR781      0.1794
    218  OG1       94.7990    4.6480  -33.7080 O.3   781  THR781     -0.2208
    219  CG2       94.5900    4.0260  -36.0280 C.3   781  THR781      0.0378
    220  N        103.0970    8.8660  -30.2890 N.3   787  TYR787     -0.1227
    221  CA       102.7300    7.6990  -29.4840 C.3   787  TYR787      0.1736
    222  C        101.8450    8.1440  -28.3260 C.2   787  TYR787      0.2595
    223  O        100.8890    7.4560  -27.9490 O.2   787  TYR787     -0.2718
    224  CB       103.9930    7.0330  -28.9390 C.3   787  TYR787      0.0548
    225  CG       103.7330    5.8960  -27.9760 C.ar  787  TYR787     -0.0200
    226  CD1      103.3290    4.6440  -28.4320 C.ar  787  TYR787     -0.0009
    227  CD2      103.9000    6.0760  -26.6030 C.ar  787  TYR787     -0.0009
    228  CE1      103.0970    3.5900  -27.5400 C.ar  787  TYR787      0.0417
    229  CE2      103.6740    5.0380  -25.7040 C.ar  787  TYR787      0.0417
    230  CZ       103.2740    3.7990  -26.1780 C.ar  787  TYR787      0.1957
    231  OH       103.0590    2.7770  -25.2900 O.3   787  TYR787     -0.2866
    232  N        102.1750    9.3030  -27.7640 N.am  788  ILE788     -0.1980
    233  CA       101.4130    9.8600  -26.6600 C.3   788  ILE788      0.1595
    234  C        100.3900   10.8660  -27.1650 C.2   788  ILE788      0.2287
    235  O        100.7450   11.9200  -27.6950 O.2   788  ILE788     -0.2864
    236  CB       102.3340   10.5610  -25.6380 C.3   788  ILE788      0.0276
    237  CG1      103.3280    9.5520  -25.0580 C.3   788  ILE788      0.0022
    238  CG2      101.4940   11.1700  -24.5140 C.3   788  ILE788      0.0022
    239  CD1      104.3820   10.1770  -24.1720 C.3   788  ILE788      0.0001
    240  N         96.5540   12.1780  -25.6210 N.3   790  PHE790     -0.1241
    241  CA        95.6280   12.0510  -24.5060 C.3   790  PHE790      0.1605
    242  C         94.5970   13.1720  -24.4480 C.2   790  PHE790      0.2264
    243  O         94.8770   14.3100  -24.8270 O.2   790  PHE790     -0.2867
    244  CB        96.4420   12.0330  -23.2010 C.3   790  PHE790      0.0534
    245  CG        95.6100   12.0780  -21.9550 C.ar  790  PHE790     -0.0203
    246  CD1       95.1600   10.9080  -21.3580 C.ar  790  PHE790     -0.0042
    247  CD2       95.2620   13.3010  -21.3810 C.ar  790  PHE790     -0.0042
    248  CE1       94.3700   10.9490  -20.2010 C.ar  790  PHE790     -0.0003
    249  CE2       94.4740   13.3560  -20.2260 C.ar  790  PHE790     -0.0003
    250  CZ        94.0260   12.1770  -19.6360 C.ar  790  PHE790     -0.0000
@<TRIPOS>BOND
     1   104   105    1
     2    44    43    2
     3   216   215    2
     4    43    42    1
     5   105   106    1
     6   105   108    1
     7   106   107    2
     8   108   109    1
     9    45    42    1
    10    45    46    1
    11   215   214    1
    12    47    46    1
    13    42    41    1
    14   219   217    1
    15    46    48    1
    16   109   110    1
    17   205   204    2
    18   214   217    1
    19   214   213    1
    20   112   110   ar
    21    41    32   am
    22   217   218    1
    23   110   111   ar
    24   204   213   am
    25   204   203    1
    26    32    33    2
    27    32    31    1
    28    22    23    2
    29    22    21    1
    30   203   202    1
    31   203   206    1
    32    30    31    1
    33    24    21    1
    34    24    25    1
    35    31    34    1
    36    21    20    1
    37    11    12    1
    38   207   206    1
    39   207   208    1
    40    20    13   am
    41   194   193    2
    42     3     4    2
    43     3     2    1
    44    25    26   ar
    45    25    27   ar
    46    34    35    1
    47    26    28   ar
    48     1     2    1
    49    13    14    2
    50    13    12    1
    51   176   175    2
    52   193   192    1
    53    12    15    1
    54   175   174    1
    55   209   208    1
    56   209   210    2
    57     2     5    1
    58    27    29   ar
    59    28    29   ar
    60     5     6    1
    61    35    36   ar
    62    35    37   ar
    63   212   210    1
    64   220   221    1
    65    36    38   ar
    66   113   114    1
    67   200   198   ar
    68   200   201   ar
    69   210   211    1
    70    15    16    1
    71     7     6   ar
    72     7     9   ar
    73   192   191    1
    74   192   195    1
    75   198   196   ar
    76   172   171    2
    77     6     8   ar
    78   174   173    1
    79   174   177    1
    80   221   224    1
    81   221   222    1
    82   171   173   am
    83   171   170    1
    84    37    39   ar
    85     9    10   ar
    86   201   199   ar
    87   170   169    1
    88   196   195    1
    89   196   197   ar
    90   179   177    1
    91     8    10   ar
    92    38    40   ar
    93   224   225    1
    94   177   178    1
    95   117   114    1
    96   117   118    1
    97    16    17    1
    98   114   115    1
    99   121   119   ar
   100   226   225   ar
   101   226   228   ar
   102   115   116    2
   103   199   197   ar
   104   222   223    2
   105   222   232   am
   106    39    40   ar
   107    19    17   am
   108   225   227   ar
   109    17    18    2
   110   232   233    1
   111    84    83    1
   112   235   234    2
   113   119   118    1
   114   119   120   ar
   115   228   230   ar
   116   122   123    1
   117    85    83    1
   118   234   233    1
   119    83    80    1
   120   233   236    1
   121   227   229   ar
   122   230   229   ar
   123   230   231    1
   124   123   126    1
   125   123   124    1
   126    67    64    1
   127   126   127    1
   128   236   237    1
   129   236   238    1
   130   240   241    1
   131   131   124   am
   132   131   132    1
   133    89    88    2
   134    80    79    1
   135    80    81    1
   136   127   128    1
   137    54    53    1
   138   124   125    2
   139   138   136   am
   140   237   239    1
   141   133   132    1
   142   133   134    2
   143   135   132    1
   144   135   136    1
   145    79    70   am
   146   243   242    2
   147    53    50    1
   148    71    70    2
   149    81    82    2
   150    81    86   am
   151    70    69    1
   152   136   137    2
   153   241   242    1
   154   241   244    1
   155    66    65    2
   156    64    65    1
   157    64    63    1
   158   128   129    1
   159    88    87    1
   160    65    68   am
   161    63    57   am
   162    86    87    1
   163   129   130    1
   164    58    57    2
   165    57    56    1
   166    68    69    1
   167    61    60    2
   168    69    72    1
   169    56    55    1
   170    56    59    1
   171    52    51    2
   172    55    51   am
   173    51    50    1
   174    87    90    1
   175    50    49    1
   176   156   154   ar
   177   156   157   ar
   178    92    93    1
   179   244   245    1
   180   154   151   ar
   181    95    94    2
   182   166   164   ar
   183   166   168   ar
   184    60    59    1
   185    60    62   am
   186   157   155   ar
   187    72    73    1
   188   164   163   ar
   189    94    93    1
   190   147   146    2
   191   151   149   ar
   192   151   153   ar
   193    93    96    1
   194    91    90    1
   195   148   149    1
   196   148   145    1
   197   168   167   ar
   198   155   153   ar
   199   245   247   ar
   200   245   246   ar
   201   149   150   ar
   202   146   145    1
   203   153   152   ar
   204   161   160    2
   205   160   159    1
   206    73    75   ar
   207    73    74   ar
   208    75    77   ar
   209   247   249   ar
   210   246   248   ar
   211   145   144    1
   212   163   162    1
   213   163   165   ar
   214   150   152   ar
   215    99   101   ar
   216    99    97   ar
   217    96    97    1
   218   167   165   ar
   219   101   102   ar
   220    97    98   ar
   221    74    76   ar
   222    77    78   ar
   223   162   159    1
   224   102   103    1
   225   102   100   ar
   226   159   158    1
   227    98   100   ar
   228   249   250   ar
   229   248   250   ar
   230   144   141   am
   231    76    78   ar
   232   189   188    1
   233   142   141    2
   234   141   140    1
   235   188   190    1
   236   188   187    2
   237   186   187    1
   238   186   185    1
   239   185   184    1
   240   139   140    1
   241   140   143    1
   242   184   181    1
   243   183   182    2
   244   181   182    1
   245   181   180    1
