@<TRIPOS>MOLECULE
tmp/2g48A00.pdb
 254 248 0 0 0
SMALL
GASTEIGER

@<TRIPOS>ATOM
      1  N         79.5290   78.1710   20.1710 N.3    66  HIS66      -0.1241
      2  CA        79.7430   77.0900   19.2530 C.3    66  HIS66       0.1621
      3  C         78.5220   76.9770   18.3250 C.2    66  HIS66       0.2264
      4  O         78.6590   76.7350   17.1170 O.2    66  HIS66      -0.2867
      5  CB        79.9410   75.8040   20.0420 C.3    66  HIS66       0.0745
      6  CG        80.1940   74.6090   19.1830 C.ar   66  HIS66       0.0817
      7  ND1       79.8930   73.3270   19.5880 N.ar   66  HIS66      -0.2268
      8  CD2       80.6890   74.5060   17.9290 C.ar   66  HIS66       0.1154
      9  CE1       80.1860   72.4830   18.6140 C.ar   66  HIS66       0.1986
     10  NE2       80.6700   73.1720   17.5960 N.ar   66  HIS66      -0.2212
     11  N         78.5800   79.6620   15.8320 N.3    69  GLN69      -0.1231
     12  CA        79.5330   79.2870   14.7920 C.3    69  GLN69       0.1698
     13  C         78.8500   78.4740   13.6920 C.2    69  GLN69       0.2592
     14  O         78.9950   78.7770   12.5080 O.2    69  GLN69      -0.2718
     15  CB        80.6630   78.4500   15.3860 C.3    69  GLN69       0.0381
     16  CG        81.7250   78.0460   14.3700 C.3    69  GLN69       0.0905
     17  CD        82.5540   76.8680   14.8330 C.2    69  GLN69       0.2608
     18  OE1       82.1200   75.7190   14.7740 O.2    69  GLN69      -0.2717
     19  NE2       83.7480   77.1490   15.3090 N.am   69  GLN69      -0.0878
     20  N         78.1250   77.4330   14.0960 N.am   70  HIS70      -0.1976
     21  CA        77.4160   76.5620   13.1640 C.3    70  HIS70       0.1656
     22  C         76.3920   77.3070   12.3240 C.2    70  HIS70       0.2291
     23  O         76.3270   77.1450   11.1050 O.2    70  HIS70      -0.2864
     24  CB        76.6860   75.4450   13.9190 C.3    70  HIS70       0.0771
     25  CG        77.5480   74.2660   14.2540 C.ar   70  HIS70       0.0820
     26  ND1       77.3110   73.0060   13.7500 N.ar   70  HIS70      -0.2267
     27  CD2       78.6360   74.1530   15.0550 C.ar   70  HIS70       0.1154
     28  CE1       78.2120   72.1660   14.2260 C.ar   70  HIS70       0.1986
     29  NE2       79.0270   72.8370   15.0210 N.ar   70  HIS70      -0.2212
     30  N         76.8560   79.6340    8.7900 N.3    73  PHE73      -0.1241
     31  CA        76.9900   79.0340    7.4630 C.3    73  PHE73       0.1605
     32  C         75.6240   78.8060    6.8300 C.2    73  PHE73       0.2264
     33  O         75.5230   78.6090    5.6260 O.2    73  PHE73      -0.2867
     34  CB        77.7030   77.6720    7.5420 C.3    73  PHE73       0.0534
     35  CG        79.1490   77.7530    7.9510 C.ar   73  PHE73      -0.0203
     36  CD1       79.5050   77.9390    9.2910 C.ar   73  PHE73      -0.0042
     37  CD2       80.1570   77.6550    6.9950 C.ar   73  PHE73      -0.0042
     38  CE1       80.8420   78.0270    9.6710 C.ar   73  PHE73      -0.0003
     39  CE2       81.4930   77.7420    7.3620 C.ar   73  PHE73      -0.0003
     40  CZ        81.8380   77.9280    8.7050 C.ar   73  PHE73      -0.0000
     41  N         85.7430   74.5330    3.3440 N.3    96  SER96      -0.1202
     42  CA        85.6690   75.4270    4.4860 C.3    96  SER96       0.2020
     43  C         85.4300   74.6720    5.7780 C.2    96  SER96       0.2619
     44  O         84.8680   73.5820    5.7820 O.2    96  SER96      -0.2717
     45  CB        84.5390   76.4480    4.2700 C.3    96  SER96       0.2103
     46  OG        84.3660   77.2920    5.3980 O.3    96  SER96      -0.2182
     47  N         85.8910   75.2530    6.8740 N.am   97  ASN97      -0.1960
     48  CA        85.6730   74.6710    8.1840 C.3    97  ASN97       0.1819
     49  C         85.7550   75.7920    9.2050 C.2    97  ASN97       0.2621
     50  O         86.0230   76.9480    8.8540 O.2    97  ASN97      -0.2715
     51  CB        86.6910   73.5850    8.5110 C.3    97  ASN97       0.1195
     52  CG        86.0970   72.4990    9.4050 C.2    97  ASN97       0.2630
     53  OD1       85.1060   72.7290   10.0970 O.2    97  ASN97      -0.2716
     54  ND2       86.6990   71.3210    9.3960 N.am   97  ASN97      -0.0877
     55  N         85.5250   75.4590   10.4670 N.am   98  ALA98      -0.1963
     56  CA        85.5470   76.4670   11.5120 C.3    98  ALA98       0.1728
     57  C         85.6190   75.7940   12.8580 C.2    98  ALA98       0.2616
     58  O         85.1400   74.6720   13.0170 O.2    98  ALA98      -0.2715
     59  CB        84.2880   77.3230   11.4290 C.3    98  ALA98       0.0334
     60  N         86.2310   76.4610   13.8280 N.am   99  PHE99      -0.1960
     61  CA        86.3060   75.8820   15.1570 C.3    99  PHE99       0.1771
     62  C         86.0790   76.9320   16.2200 C.2    99  PHE99       0.2620
     63  O         86.2650   78.1260   15.9800 O.2    99  PHE99      -0.2715
     64  CB        87.6440   75.1630   15.3960 C.3    99  PHE99       0.0574
     65  CG        88.8310   76.0720   15.4550 C.ar   99  PHE99      -0.0200
     66  CD1       89.6540   76.2500   14.3320 C.ar   99  PHE99      -0.0042
     67  CD2       89.1410   76.7530   16.6340 C.ar   99  PHE99      -0.0042
     68  CE1       90.7770   77.0970   14.3830 C.ar   99  PHE99      -0.0003
     69  CE2       90.2600   77.6050   16.7000 C.ar   99  PHE99      -0.0003
     70  CZ        91.0800   77.7770   15.5730 C.ar   99  PHE99      -0.0000
     71  N         85.6360   76.4700   17.3850 N.am  100  THR100     -0.1937
     72  CA        85.3680   77.3370   18.5240 C.3   100  THR100      0.2028
     73  C         86.2010   76.8640   19.7050 C.2   100  THR100      0.2642
     74  O         86.1790   75.6820   20.0500 O.2   100  THR100     -0.2714
     75  CB        83.8710   77.2750   18.9420 C.3   100  THR100      0.1808
     76  OG1       83.0450   77.6950   17.8490 O.3   100  THR100     -0.2208
     77  CG2       83.6010   78.1700   20.1470 C.3   100  THR100      0.0379
     78  N         86.9530   77.7750   20.3080 N.am  101  SER101     -0.1949
     79  CA        87.7450   77.4340   21.4840 C.3   101  SER101      0.1924
     80  C         87.2330   78.3570   22.5900 C.2   101  SER101      0.2314
     81  O         86.2650   79.0890   22.3860 O.2   101  SER101     -0.2863
     82  CB        89.2440   77.6510   21.2330 C.3   101  SER101      0.2116
     83  OG        89.6030   79.0210   21.2760 O.3   101  SER101     -0.2180
     84  N         87.2190   79.7390    8.2000 N.3   108  TYR108     -0.1241
     85  CA        88.1340   79.7630    7.0740 C.3   108  TYR108      0.1605
     86  C         87.6880   78.9530    5.8660 C.2   108  TYR108      0.2264
     87  O         86.9240   77.9870    5.9850 O.2   108  TYR108     -0.2867
     88  CB        89.5190   79.2990    7.5520 C.3   108  TYR108      0.0534
     89  CG        89.4910   77.9880    8.3080 C.ar  108  TYR108     -0.0201
     90  CD1       89.5320   76.7650    7.6290 C.ar  108  TYR108     -0.0009
     91  CD2       89.4070   77.9670    9.6990 C.ar  108  TYR108     -0.0009
     92  CE1       89.4940   75.5520    8.3190 C.ar  108  TYR108      0.0417
     93  CE2       89.3670   76.7620   10.4000 C.ar  108  TYR108      0.0417
     94  CZ        89.4110   75.5600    9.7040 C.ar  108  TYR108      0.1957
     95  OH        89.3750   74.3700   10.3950 O.3   108  TYR108     -0.2866
     96  N         69.9710   72.2610   12.9640 N.3   140  GLU140     -0.1245
     97  CA        71.3930   72.3010   13.2740 C.3   140  GLU140      0.1567
     98  C         71.7370   71.9520   14.7220 C.2   140  GLU140      0.2260
     99  O         72.8480   71.4860   15.0070 O.2   140  GLU140     -0.2867
    100  CB        71.9780   73.6690   12.9150 C.3   140  GLU140      0.0388
    101  CG        73.4950   73.6810   12.8790 C.3   140  GLU140      0.1160
    102  CD        74.0720   72.7110   11.8440 C.2   140  GLU140      0.3649
    103  OE1       75.3120   72.5230   11.8260 O.co2 140  GLU140     -0.2457
    104  OE2       73.2870   72.1430   11.0480 O.co2 140  GLU140     -0.2457
    105  N         77.8890   65.9970   17.7760 N.3   147  GLU147     -0.1245
    106  CA        79.3130   66.2130   17.9600 C.3   147  GLU147      0.1567
    107  C         79.6990   65.8970   19.4020 C.2   147  GLU147      0.2260
    108  O         80.6900   65.2180   19.6580 O.2   147  GLU147     -0.2867
    109  CB        79.6510   67.6640   17.6390 C.3   147  GLU147      0.0388
    110  CG        81.1210   67.9640   17.5460 C.3   147  GLU147      0.1160
    111  CD        81.3920   69.4550   17.5750 C.2   147  GLU147      0.3649
    112  OE1       80.8190   70.2080   16.7450 O.co2 147  GLU147     -0.2457
    113  OE2       82.1840   69.8720   18.4400 O.co2 147  GLU147     -0.2457
    114  N         79.7470   62.0810   20.2970 N.3   150  LYS150     -0.1231
    115  CA        80.9140   61.2840   19.9430 C.3   150  LYS150      0.1693
    116  C         82.0570   61.4810   20.9290 C.2   150  LYS150      0.2592
    117  O         82.8920   60.5930   21.0940 O.2   150  LYS150     -0.2718
    118  CB        81.3910   61.6180   18.5260 C.3   150  LYS150      0.0285
    119  CG        82.5320   62.6130   18.4500 C.3   150  LYS150      0.0035
    120  CD        82.9680   62.8250   17.0080 C.3   150  LYS150      0.0206
    121  CE        84.2140   63.6990   16.9210 C.3   150  LYS150      0.1093
    122  NZ        85.4320   63.0270   17.4900 N.3   150  LYS150     -0.1314
    123  N         82.0950   62.6420   21.5820 N.am  151  ASN151     -0.1974
    124  CA        83.1490   62.9340   22.5530 C.3   151  ASN151      0.1688
    125  C         82.8880   62.3800   23.9510 C.2   151  ASN151      0.2292
    126  O         83.8260   62.1710   24.7210 O.2   151  ASN151     -0.2864
    127  CB        83.3630   64.4400   22.6800 C.3   151  ASN151      0.1181
    128  CG        83.7940   65.0820   21.3830 C.2   151  ASN151      0.2629
    129  OD1       84.2640   64.4080   20.4610 O.2   151  ASN151     -0.2716
    130  ND2       83.6530   66.3990   21.3070 N.am  151  ASN151     -0.0877
    131  N         90.0140   61.8270   26.2930 N.3   156  ALA156     -0.1231
    132  CA        90.6050   63.1570   26.2150 C.3   156  ALA156      0.1694
    133  C         89.5830   64.2320   26.5710 C.2   156  ALA156      0.2592
    134  O         89.8690   65.1030   27.3870 O.2   156  ALA156     -0.2718
    135  CB        91.1610   63.4050   24.8300 C.3   156  ALA156      0.0304
    136  N         88.3940   64.1800   25.9730 N.am  157  TRP157     -0.1976
    137  CA        87.3770   65.1850   26.2740 C.3   157  TRP157      0.1640
    138  C         86.8960   65.0980   27.7230 C.2   157  TRP157      0.2290
    139  O         86.5940   66.1150   28.3440 O.2   157  TRP157     -0.2864
    140  CB        86.1790   65.0610   25.3210 C.3   157  TRP157      0.0576
    141  CG        86.4660   65.5460   23.9220 C.ar  157  TRP157      0.0006
    142  CD1       86.9810   64.8130   22.8890 C.ar  157  TRP157      0.0946
    143  CD2       86.3160   66.8770   23.4240 C.ar  157  TRP157      0.0152
    144  NE1       87.1670   65.6060   21.7840 N.ar  157  TRP157     -0.2442
    145  CE2       86.7700   66.8960   22.0870 C.ar  157  TRP157      0.0810
    146  CE3       85.8540   68.0860   23.9830 C.ar  157  TRP157      0.0012
    147  CZ2       86.7640   68.0390   21.2870 C.ar  157  TRP157      0.0191
    148  CZ3       85.8430   69.2340   23.1910 C.ar  157  TRP157      0.0001
    149  CH2       86.3040   69.2010   21.8610 C.ar  157  TRP157      0.0015
    150  N         89.4790   66.6150   29.8330 N.3   160  PHE160     -0.1241
    151  CA        89.5200   68.0370   29.5310 C.3   160  PHE160      0.1605
    152  C         88.4450   68.7900   30.3240 C.2   160  PHE160      0.2264
    153  O         88.7130   69.8600   30.8640 O.2   160  PHE160     -0.2867
    154  CB        89.3660   68.2280   28.0180 C.3   160  PHE160      0.0534
    155  CG        89.0460   69.6330   27.5930 C.ar  160  PHE160     -0.0203
    156  CD1       87.7290   70.0060   27.3310 C.ar  160  PHE160     -0.0042
    157  CD2       90.0590   70.5680   27.3950 C.ar  160  PHE160     -0.0042
    158  CE1       87.4270   71.2890   26.8710 C.ar  160  PHE160     -0.0003
    159  CE2       89.7700   71.8550   26.9340 C.ar  160  PHE160     -0.0003
    160  CZ        88.4520   72.2170   26.6690 C.ar  160  PHE160     -0.0000
    161  N         81.8480   74.1230   27.0680 N.3   177  GLY177     -0.1210
    162  CA        81.8650   74.7930   25.7800 C.3   177  GLY177      0.1956
    163  C         81.1510   74.1590   24.5990 C.2   177  GLY177      0.2612
    164  O         80.5680   74.8700   23.7850 O.2   177  GLY177     -0.2717
    165  N         81.1900   72.8350   24.4860 N.am  178  THR178     -0.1952
    166  CA        80.5530   72.1620   23.3610 C.3   178  THR178      0.1897
    167  C         79.0560   72.4310   23.2550 C.2   178  THR178      0.2313
    168  O         78.5810   72.9100   22.2290 O.2   178  THR178     -0.2863
    169  CB        80.7690   70.6400   23.4260 C.3   178  THR178      0.1794
    170  OG1       82.1730   70.3640   23.4830 O.3   178  THR178     -0.2208
    171  CG2       80.1650   69.9580   22.1920 C.3   178  THR178      0.0378
    172  N         85.2960   54.7070   18.0020 N.3   635  GLN635     -0.1245
    173  CA        83.9940   55.1060   17.4840 C.3   635  GLN635      0.1566
    174  C         83.3540   54.1150   16.5180 C.2   635  GLN635      0.2260
    175  O         84.0400   53.4380   15.7560 O.2   635  GLN635     -0.2867
    176  CB        84.1160   56.4670   16.8030 C.3   635  GLN635      0.0367
    177  CG        84.5780   57.5650   17.7300 C.3   635  GLN635      0.0905
    178  CD        83.4960   58.5740   17.9880 C.2   635  GLN635      0.2608
    179  OE1       82.4320   58.2430   18.5190 O.2   635  GLN635     -0.2717
    180  NE2       83.7520   59.8210   17.6070 N.am  635  GLN635     -0.0878
    181  N         81.8300   54.4330   13.6780 N.3   637  HIS637     -0.1241
    182  CA        82.1720   54.5600   12.2640 C.3   637  HIS637      0.1621
    183  C         83.5720   53.9960   11.9970 C.2   637  HIS637      0.2264
    184  O         83.8560   53.5200   10.8930 O.2   637  HIS637     -0.2867
    185  CB        82.0700   56.0220   11.7770 C.3   637  HIS637      0.0745
    186  CG        83.1720   56.9130   12.2590 C.ar  637  HIS637      0.0817
    187  ND1       83.3120   57.2790   13.5800 N.ar  637  HIS637     -0.2268
    188  CD2       84.1980   57.5000   11.5960 C.ar  637  HIS637      0.1154
    189  CE1       84.3780   58.0500   13.7110 C.ar  637  HIS637      0.1986
    190  NE2       84.9340   58.1990   12.5210 N.ar  637  HIS637     -0.2212
    191  N         76.2330   66.0880    1.9540 N.3   778  PHE778     -0.1241
    192  CA        76.3590   66.7170    3.2560 C.3   778  PHE778      0.1605
    193  C         75.1040   67.5420    3.5790 C.2   778  PHE778      0.2264
    194  O         74.5420   67.4420    4.6700 O.2   778  PHE778     -0.2867
    195  CB        77.6000   67.6190    3.2660 C.3   778  PHE778      0.0534
    196  CG        77.9320   68.1800    4.6150 C.ar  778  PHE778     -0.0203
    197  CD1       78.6630   67.4320    5.5340 C.ar  778  PHE778     -0.0042
    198  CD2       77.5080   69.4610    4.9740 C.ar  778  PHE778     -0.0042
    199  CE1       78.9690   67.9520    6.7910 C.ar  778  PHE778     -0.0003
    200  CE2       77.8080   69.9920    6.2270 C.ar  778  PHE778     -0.0003
    201  CZ        78.5390   69.2410    7.1380 C.ar  778  PHE778     -0.0000
    202  N         72.9300   65.6060    6.3120 N.3   782  ARG782     -0.1245
    203  CA        73.1800   66.2530    7.5910 C.3   782  ARG782      0.1563
    204  C         72.3600   67.5230    7.8340 C.2   782  ARG782      0.2260
    205  O         71.4880   67.5440    8.6930 O.2   782  ARG782     -0.2867
    206  CB        74.6680   66.5760    7.7680 C.3   782  ARG782      0.0307
    207  CG        74.9590   67.2190    9.1210 C.3   782  ARG782      0.0489
    208  CD        76.4440   67.4150    9.3910 C.3   782  ARG782      0.2205
    209  NE        76.6910   68.7560    9.9150 N.pl3 782  ARG782     -0.0865
    210  CZ        77.8090   69.1370   10.5240 C.cat 782  ARG782      0.5346
    211  NH1       78.7970   68.2770   10.7030 N.pl3 782  ARG782      0.1354
    212  NH2       77.9450   70.3930   10.9270 N.pl3 782  ARG782      0.1354
    213  N         76.4310   64.0580   13.0470 N.3   789  TYR789     -0.1227
    214  CA        77.5250   65.0090   12.8990 C.3   789  TYR789      0.1736
    215  C         78.4600   64.4990   11.8040 C.2   789  TYR789      0.2595
    216  O         78.9330   65.2570   10.9570 O.2   789  TYR789     -0.2718
    217  CB        78.2930   65.1090   14.2080 C.3   789  TYR789      0.0548
    218  CG        79.5560   65.9240   14.1080 C.ar  789  TYR789     -0.0200
    219  CD1       79.5010   67.2960   13.8900 C.ar  789  TYR789     -0.0009
    220  CD2       80.8110   65.3270   14.2470 C.ar  789  TYR789     -0.0009
    221  CE1       80.6550   68.0590   13.8170 C.ar  789  TYR789      0.0417
    222  CE2       81.9830   66.0870   14.1750 C.ar  789  TYR789      0.0417
    223  CZ        81.8910   67.4560   13.9610 C.ar  789  TYR789      0.1957
    224  OH        83.0240   68.2350   13.9000 O.3   789  TYR789     -0.2866
    225  N         78.7230   63.2010   11.8280 N.am  790  ILE790     -0.1980
    226  CA        79.5910   62.5930   10.8410 C.3   790  ILE790      0.1595
    227  C         78.7840   62.0280    9.6770 C.2   790  ILE790      0.2287
    228  O         78.0670   61.0410    9.8200 O.2   790  ILE790     -0.2864
    229  CB        80.4480   61.4740   11.4870 C.3   790  ILE790      0.0276
    230  CG1       81.4130   62.0940   12.5000 C.3   790  ILE790      0.0022
    231  CG2       81.2230   60.7070   10.4230 C.3   790  ILE790      0.0022
    232  CD1       82.2360   61.0750   13.2640 C.3   790  ILE790      0.0001
    233  N         79.7330   61.4000    5.6530 N.3   792  PHE792     -0.1241
    234  CA        80.7870   61.4390    4.6560 C.3   792  PHE792      0.1605
    235  C         80.4600   60.6180    3.4120 C.2   792  PHE792      0.2264
    236  O         79.7350   59.6230    3.4760 O.2   792  PHE792     -0.2867
    237  CB        82.0760   60.9110    5.3030 C.3   792  PHE792      0.0534
    238  CG        83.2130   60.7150    4.3410 C.ar  792  PHE792     -0.0203
    239  CD1       84.0310   61.7840    3.9820 C.ar  792  PHE792     -0.0042
    240  CD2       83.4520   59.4600    3.7750 C.ar  792  PHE792     -0.0042
    241  CE1       85.0720   61.6110    3.0700 C.ar  792  PHE792     -0.0003
    242  CE2       84.4900   59.2700    2.8600 C.ar  792  PHE792     -0.0003
    243  CZ        85.3020   60.3440    2.5050 C.ar  792  PHE792     -0.0000
    244  N         81.7330   55.1280   -1.5370 N.3   805  ARG805     -0.1245
    245  CA        81.4320   54.7620   -0.1640 C.3   805  ARG805      0.1563
    246  C         80.7170   55.8910    0.5680 C.2   805  ARG805      0.2260
    247  O         80.8740   57.0740    0.2430 O.2   805  ARG805     -0.2867
    248  CB        82.7160   54.4130    0.5870 C.3   805  ARG805      0.0307
    249  CG        83.6960   55.5590    0.6910 C.3   805  ARG805      0.0489
    250  CD        84.8440   55.2230    1.6170 C.3   805  ARG805      0.2205
    251  NE        85.8520   56.2780    1.5690 N.pl3 805  ARG805     -0.0865
    252  CZ        86.8120   56.4520    2.4730 C.cat 805  ARG805      0.5346
    253  NH1       86.9110   55.6360    3.5200 N.pl3 805  ARG805      0.1354
    254  NH2       87.6710   57.4480    2.3230 N.pl3 805  ARG805      0.1354
@<TRIPOS>BOND
     1   244   245    1
     2   245   246    1
     3   245   248    1
     4   247   246    2
     5   248   249    1
     6   249   250    1
     7   251   250    1
     8   251   252    2
     9   191   192    1
    10   254   252    1
    11   252   253    1
    12   243   242   ar
    13   243   241   ar
    14   242   240   ar
    15   241   239   ar
    16   192   195    1
    17   192   193    1
    18   195   196    1
    19    41    42    1
    20   235   236    2
    21   235   234    1
    22   193   194    2
    23   240   238   ar
    24   239   238   ar
    25    45    42    1
    26    45    46    1
    27   238   237    1
    28    42    43    1
    29   196   198   ar
    30   196   197   ar
    31   234   237    1
    32   234   233    1
    33   198   200   ar
    34   197   199   ar
    35    33    32    2
    36    43    44    2
    37    43    47   am
    38    86    87    2
    39    86    85    1
    40   200   201   ar
    41   202   203    1
    42   199   201   ar
    43    32    31    1
    44    47    48    1
    45    37    39   ar
    46    37    35   ar
    47    85    88    1
    48    85    84    1
    49    39    40   ar
    50    31    34    1
    51    31    30    1
    52    34    35    1
    53    88    89    1
    54   203   206    1
    55   203   204    1
    56    90    89   ar
    57    90    92   ar
    58   206   207    1
    59   204   205    2
    60    35    36   ar
    61    48    51    1
    62    48    49    1
    63    89    91   ar
    64    92    94   ar
    65    51    52    1
    66    40    38   ar
    67    50    49    2
    68   207   208    1
    69    49    55   am
    70    36    38   ar
    71   208   209    1
    72    54    52   am
    73    52    53    2
    74   227   228    2
    75   227   226    1
    76    91    93   ar
    77    94    95    1
    78    94    93   ar
    79   209   210    2
    80   231   229    1
    81    55    56    1
    82   210   211    1
    83   210   212    1
    84   226   229    1
    85   226   225    1
    86   184   183    2
    87   216   215    2
    88   104   102   ar
    89    23    22    2
    90    59    56    1
    91   229   230    1
    92    56    57    1
    93   188   186   ar
    94   188   190   ar
    95   185   186    1
    96   185   182    1
    97   215   225   am
    98   215   214    1
    99   103   102   ar
   100   102   101    1
   101   183   182    1
   102   186   187   ar
   103   182   181    1
   104    22    21    1
   105   230   232    1
   106    14    13    2
   107   190   189   ar
   108    57    58    2
   109    57    60   am
   110   101   100    1
   111   214   213    1
   112   214   217    1
   113   100    97    1
   114    96    97    1
   115    21    24    1
   116    21    20    1
   117    97    98    1
   118   187   189   ar
   119    13    20   am
   120    13    12    1
   121    26    28   ar
   122    26    25   ar
   123   221   219   ar
   124   221   223   ar
   125    60    61    1
   126   219   218   ar
   127   224   223    1
   128    24    25    1
   129   223   222   ar
   130   218   217    1
   131   218   220   ar
   132   222   220   ar
   133    28    29   ar
   134    25    27   ar
   135    66    68   ar
   136    66    65   ar
   137    16    17    1
   138    16    15    1
   139    68    70   ar
   140    98    99    2
   141    18    17    2
   142    12    15    1
   143    12    11    1
   144    17    19   am
   145    29    27   ar
   146    61    64    1
   147    61    62    1
   148    64    65    1
   149    65    67   ar
   150    70    69   ar
   151   175   174    2
   152    63    62    2
   153    62    71   am
   154   174   173    1
   155    67    69   ar
   156   112   111   ar
   157   176   173    1
   158   176   177    1
   159   121   120    1
   160   121   122    1
   161   120   119    1
   162     4     3    2
   163    71    72    1
   164   173   172    1
   165   110   111    1
   166   110   109    1
   167   111   113   ar
   168    10     8   ar
   169    10     9   ar
   170   180   178   am
   171   109   106    1
   172   177   178    1
   173   105   106    1
   174    76    75    1
   175     8     6   ar
   176   106   107    1
   177   178   179    2
   178     3     2    1
   179   119   118    1
   180    72    75    1
   181    72    73    1
   182   118   115    1
   183     9     7   ar
   184    75    77    1
   185     6     7   ar
   186     6     5    1
   187     2     5    1
   188     2     1    1
   189   107   108    2
   190    73    74    2
   191    73    78   am
   192   115   114    1
   193   115   116    1
   194    78    79    1
   195   129   128    2
   196   116   117    2
   197   116   123   am
   198    82    83    1
   199    82    79    1
   200   147   149   ar
   201   147   145   ar
   202   130   128   am
   203   128   127    1
   204    79    80    1
   205   123   124    1
   206   144   145   ar
   207   144   142   ar
   208   149   148   ar
   209   145   143   ar
   210   171   169    1
   211   168   167    2
   212    81    80    2
   213   124   127    1
   214   124   125    1
   215   142   141   ar
   216   148   146   ar
   217   167   166    1
   218   166   169    1
   219   166   165    1
   220   143   141   ar
   221   143   146   ar
   222   169   170    1
   223   164   163    2
   224   141   140    1
   225   125   126    2
   226   165   163   am
   227   163   162    1
   228   135   132    1
   229   140   137    1
   230   162   161    1
   231   136   137    1
   232   136   133   am
   233   132   131    1
   234   132   133    1
   235   137   138    1
   236   133   134    2
   237   160   158   ar
   238   160   159   ar
   239   158   156   ar
   240   159   157   ar
   241   156   155   ar
   242   157   155   ar
   243   155   154    1
   244   138   139    2
   245   154   151    1
   246   151   150    1
   247   151   152    1
   248   152   153    2
