@<TRIPOS>MOLECULE
tmp/2g49A00.pdb
 228 224 0 0 0
SMALL
GASTEIGER

@<TRIPOS>ATOM
      1  N        151.0440   32.5970   23.6010 N.3    54  SER54      -0.1217
      2  CA       152.0330   32.1590   24.5750 C.3    54  SER54       0.1889
      3  C        151.5190   31.9920   26.0010 C.2    54  SER54       0.2288
      4  O        152.0760   31.2080   26.7740 O.2    54  SER54      -0.2866
      5  CB       153.2470   33.0980   24.5520 C.3    54  SER54       0.2089
      6  OG       152.9460   34.3550   25.1210 O.3    54  SER54      -0.2183
      7  N        155.0120   29.9580   20.2230 N.3    66  HIS66      -0.1241
      8  CA       155.7730   30.7120   19.2450 C.3    66  HIS66       0.1621
      9  C        156.5150   29.7420   18.3220 C.2    66  HIS66       0.2264
     10  O        156.7070   30.0210   17.1300 O.2    66  HIS66      -0.2867
     11  CB       156.7650   31.6370   19.9570 C.3    66  HIS66       0.0745
     12  CG       157.5760   32.4870   19.0300 C.ar   66  HIS66       0.0817
     13  ND1      158.9000   32.7880   19.2690 N.ar   66  HIS66      -0.2268
     14  CD2      157.2610   33.0830   17.8550 C.ar   66  HIS66       0.1154
     15  CE1      159.3690   33.5260   18.2790 C.ar   66  HIS66       0.1986
     16  NE2      158.3960   33.7200   17.4070 N.ar   66  HIS66      -0.2212
     17  N        154.2490   28.3860   15.7520 N.3    69  GLN69      -0.1231
     18  CA       154.0780   29.3940   14.7110 C.3    69  GLN69       0.1698
     19  C        155.1560   29.2230   13.6260 C.2    69  GLN69       0.2592
     20  O        154.8460   29.1440   12.4400 O.2    69  GLN69      -0.2718
     21  CB       154.1850   30.7850   15.3280 C.3    69  GLN69       0.0381
     22  CG       153.8180   31.9240   14.4000 C.3    69  GLN69       0.0905
     23  CD       154.7710   33.0880   14.5430 C.2    69  GLN69       0.2608
     24  OE1      155.7370   33.2070   13.7870 O.2    69  GLN69      -0.2717
     25  NE2      154.5240   33.9410   15.5280 N.am   69  GLN69      -0.0878
     26  N        156.4180   29.1740   14.0450 N.am   70  HIS70      -0.1976
     27  CA       157.5340   29.0000   13.1230 C.3    70  HIS70       0.1656
     28  C        157.3890   27.7070   12.3190 C.2    70  HIS70       0.2291
     29  O        157.5380   27.6960   11.0950 O.2    70  HIS70      -0.2864
     30  CB       158.8530   28.9440   13.8980 C.3    70  HIS70       0.0771
     31  CG       159.3810   30.2840   14.3120 C.ar   70  HIS70       0.0820
     32  ND1      160.4040   30.9180   13.6420 N.ar   70  HIS70      -0.2267
     33  CD2      159.0410   31.1010   15.3370 C.ar   70  HIS70       0.1154
     34  CE1      160.6750   32.0650   14.2370 C.ar   70  HIS70       0.1986
     35  NE2      159.8620   32.2010   15.2690 N.ar   70  HIS70      -0.2212
     36  N        155.1300   26.8880    8.8760 N.3    73  PHE73      -0.1241
     37  CA       155.5880   27.3110    7.5540 C.3    73  PHE73       0.1605
     38  C        156.4770   26.2560    6.8930 C.2    73  PHE73       0.2264
     39  O        156.6960   26.2820    5.6830 O.2    73  PHE73      -0.2867
     40  CB       156.4100   28.6080    7.6510 C.3    73  PHE73       0.0534
     41  CG       155.6090   29.8320    8.0160 C.ar   73  PHE73      -0.0203
     42  CD1      155.2100   30.0640    9.3310 C.ar   73  PHE73      -0.0042
     43  CD2      155.2610   30.7610    7.0370 C.ar   73  PHE73      -0.0042
     44  CE1      154.4820   31.2010    9.6660 C.ar   73  PHE73      -0.0003
     45  CE2      154.5330   31.8990    7.3610 C.ar   73  PHE73      -0.0003
     46  CZ       154.1430   32.1190    8.6820 C.ar   73  PHE73      -0.0000
     47  N        155.0340   37.0470    3.3740 N.3    96  SER96      -0.1202
     48  CA       154.2540   36.5480    4.4860 C.3    96  SER96       0.2020
     49  C        155.0020   36.7100    5.7850 C.2    96  SER96       0.2619
     50  O        156.2200   36.8410    5.8030 O.2    96  SER96      -0.2717
     51  CB       153.9410   35.0640    4.2590 C.3    96  SER96       0.2103
     52  OG       153.3830   34.4640    5.4140 O.3    96  SER96      -0.2182
     53  N        154.2570   36.7160    6.8750 N.am   97  ASN97      -0.1960
     54  CA       154.8580   36.8090    8.1880 C.3    97  ASN97       0.1819
     55  C        153.8250   36.3490    9.1950 C.2    97  ASN97       0.2621
     56  O        152.6910   36.0330    8.8370 O.2    97  ASN97      -0.2715
     57  CB       155.2990   38.2320    8.5070 C.3    97  ASN97       0.1195
     58  CG       156.5710   38.2610    9.3440 C.2    97  ASN97       0.2630
     59  OD1      156.7600   37.4280   10.2370 O.2    97  ASN97      -0.2716
     60  ND2      157.4500   39.2190    9.0600 N.am   97  ASN97      -0.0877
     61  N        154.2160   36.3110   10.4560 N.am   98  ALA98      -0.1963
     62  CA       153.3110   35.8750   11.4950 C.3    98  ALA98       0.1728
     63  C        153.8540   36.3150   12.8380 C.2    98  ALA98       0.2616
     64  O        155.0550   36.5220   12.9880 O.2    98  ALA98      -0.2715
     65  CB       153.1740   34.3450   11.4540 C.3    98  ALA98       0.0334
     66  N        152.9690   36.4810   13.8110 N.am   99  PHE99      -0.1960
     67  CA       153.4190   36.8610   15.1390 C.3    99  PHE99       0.1771
     68  C        152.6380   36.1500   16.2180 C.2    99  PHE99       0.2620
     69  O        151.5360   35.6670   15.9780 O.2    99  PHE99      -0.2715
     70  CB       153.3530   38.3840   15.3450 C.3    99  PHE99       0.0574
     71  CG       151.9610   38.9700   15.3170 C.ar   99  PHE99      -0.0200
     72  CD1      151.4670   39.5810   14.1620 C.ar   99  PHE99      -0.0042
     73  CD2      151.1680   38.9820   16.4710 C.ar   99  PHE99      -0.0042
     74  CE1      150.1960   40.2140   14.1540 C.ar   99  PHE99      -0.0003
     75  CE2      149.8960   39.6080   16.4780 C.ar   99  PHE99      -0.0003
     76  CZ       149.4130   40.2280   15.3150 C.ar   99  PHE99      -0.0000
     77  N        153.2310   36.0720   17.4060 N.am  100  THR100     -0.1937
     78  CA       152.5990   35.4360   18.5590 C.3   100  THR100      0.2028
     79  C        152.5540   36.4320   19.7170 C.2   100  THR100      0.2642
     80  O        153.5720   37.0280   20.0580 O.2   100  THR100     -0.2714
     81  CB       153.4070   34.1930   19.0430 C.3   100  THR100      0.1808
     82  OG1      153.5630   33.2620   17.9650 O.3   100  THR100     -0.2208
     83  CG2      152.6870   33.4960   20.1860 C.3   100  THR100      0.0379
     84  N        151.3810   36.6390   20.3020 N.am  101  SER101     -0.1949
     85  CA       151.2730   37.5200   21.4620 C.3   101  SER101      0.1924
     86  C        150.7660   36.5930   22.5660 C.2   101  SER101      0.2314
     87  O        150.7000   35.3820   22.3610 O.2   101  SER101     -0.2863
     88  CB       150.2960   38.6700   21.2160 C.3   101  SER101      0.2116
     89  OG       148.9660   38.2110   21.0580 O.3   101  SER101     -0.2180
     90  N        149.7040   35.7770    8.1710 N.3   108  TYR108     -0.1241
     91  CA       149.2400   36.5290    7.0210 C.3   108  TYR108      0.1605
     92  C        150.2060   36.5310    5.8490 C.2   108  TYR108      0.2264
     93  O        151.4070   36.2910    6.0060 O.2   108  TYR108     -0.2867
     94  CB       148.9450   37.9740    7.4520 C.3   108  TYR108      0.0534
     95  CG       150.1150   38.6520    8.1250 C.ar  108  TYR108     -0.0201
     96  CD1      151.0820   39.3330    7.3750 C.ar  108  TYR108     -0.0009
     97  CD2      150.2650   38.6090    9.5080 C.ar  108  TYR108     -0.0009
     98  CE1      152.1660   39.9580    7.9930 C.ar  108  TYR108      0.0417
     99  CE2      151.3430   39.2270   10.1370 C.ar  108  TYR108      0.0417
    100  CZ       152.2890   39.8980    9.3780 C.ar  108  TYR108      0.1957
    101  OH       153.3600   40.5020   10.0060 O.3   108  TYR108     -0.2866
    102  N        165.0280   24.6330   12.9440 N.3   140  GLU140     -0.1245
    103  CA       164.2910   25.8430   13.2790 C.3   140  GLU140      0.1567
    104  C        164.4030   26.2710   14.7370 C.2   140  GLU140      0.2260
    105  O        164.1530   27.4330   15.0610 O.2   140  GLU140     -0.2867
    106  CB       162.8180   25.6880   12.8980 C.3   140  GLU140      0.0388
    107  CG       162.0400   26.9970   12.9240 C.3   140  GLU140      0.1160
    108  CD       162.5170   27.9970   11.8730 C.2   140  GLU140      0.3649
    109  OE1      162.0030   29.1400   11.8590 O.co2 140  GLU140     -0.2457
    110  OE2      163.4010   27.6400   11.0590 O.co2 140  GLU140     -0.2457
    111  N        166.3820   34.5700   17.7310 N.3   147  GLU147     -0.1245
    112  CA       165.4330   35.6480   17.9090 C.3   147  GLU147      0.1567
    113  C        165.5030   36.1750   19.3390 C.2   147  GLU147      0.2260
    114  O        165.4830   37.3820   19.5610 O.2   147  GLU147     -0.2867
    115  CB       164.0260   35.1560   17.5900 C.3   147  GLU147      0.0388
    116  CG       162.9650   36.2190   17.6880 C.3   147  GLU147      0.1160
    117  CD       161.5890   35.7050   17.3010 C.2   147  GLU147      0.3649
    118  OE1      160.6090   36.4400   17.5250 O.co2 147  GLU147     -0.2457
    119  OE2      161.4810   34.5770   16.7650 O.co2 147  GLU147     -0.2457
    120  N        167.2180   39.9970   21.4570 N.3   151  ASN151     -0.1240
    121  CA       166.4110   40.7360   22.4280 C.3   151  ASN151      0.1653
    122  C        167.0260   40.7980   23.8250 C.2   151  ASN151      0.2266
    123  O        166.7210   41.7080   24.5900 O.2   151  ASN151     -0.2867
    124  CB       165.0160   40.1180   22.5740 C.3   151  ASN151      0.1155
    125  CG       164.1920   40.1940   21.3010 C.2   151  ASN151      0.2627
    126  OD1      164.5020   40.9550   20.3870 O.2   151  ASN151     -0.2716
    127  ND2      163.1180   39.4080   21.2480 N.am  151  ASN151     -0.0877
    128  N        163.9780   47.4080   26.3440 N.3   156  ALA156     -0.1231
    129  CA       162.5280   47.2760   26.2920 C.3   156  ALA156      0.1694
    130  C        162.0880   45.8410   26.5650 C.2   156  ALA156      0.2592
    131  O        161.1300   45.6210   27.3080 O.2   156  ALA156     -0.2718
    132  CB       162.0060   47.7280   24.9510 C.3   156  ALA156      0.0304
    133  N        162.7720   44.8630   25.9720 N.am  157  TRP157     -0.1976
    134  CA       162.4010   43.4680   26.2020 C.3   157  TRP157      0.1640
    135  C        162.7110   43.0320   27.6310 C.2   157  TRP157      0.2290
    136  O        161.9750   42.2420   28.2190 O.2   157  TRP157     -0.2864
    137  CB       163.1100   42.5300   25.2160 C.3   157  TRP157      0.0576
    138  CG       162.4980   42.5240   23.8450 C.ar  157  TRP157      0.0006
    139  CD1      162.8450   43.3140   22.7880 C.ar  157  TRP157      0.0946
    140  CD2      161.3970   41.7190   23.3990 C.ar  157  TRP157      0.0152
    141  NE1      162.0290   43.0540   21.7110 N.ar  157  TRP157     -0.2442
    142  CE2      161.1310   42.0810   22.0590 C.ar  157  TRP157      0.0810
    143  CE3      160.6070   40.7290   24.0030 C.ar  157  TRP157      0.0012
    144  CZ2      160.1090   41.4890   21.3110 C.ar  157  TRP157      0.0191
    145  CZ3      159.5910   40.1380   23.2610 C.ar  157  TRP157      0.0001
    146  CH2      159.3520   40.5220   21.9270 C.ar  157  TRP157      0.0015
    147  N        160.0520   44.4020   29.7640 N.3   160  PHE160     -0.1241
    148  CA       158.8220   43.6940   29.4730 C.3   160  PHE160      0.1605
    149  C        158.7490   42.3950   30.2970 C.2   160  PHE160      0.2264
    150  O        157.7210   42.1000   30.9080 O.2   160  PHE160     -0.2867
    151  CB       158.7660   43.4060   27.9780 C.3   160  PHE160      0.0534
    152  CG       157.7120   42.4230   27.5770 C.ar  160  PHE160     -0.0203
    153  CD1      158.0610   41.1200   27.2220 C.ar  160  PHE160     -0.0042
    154  CD2      156.3820   42.8140   27.4750 C.ar  160  PHE160     -0.0042
    155  CE1      157.1050   40.2260   26.7600 C.ar  160  PHE160     -0.0003
    156  CE2      155.4070   41.9280   27.0130 C.ar  160  PHE160     -0.0003
    157  CZ       155.7690   40.6320   26.6510 C.ar  160  PHE160     -0.0000
    158  N        157.4510   34.0120   26.8380 N.3   177  GLY177     -0.1210
    159  CA       156.8140   33.6530   25.5830 C.3   177  GLY177      0.1956
    160  C        157.6750   33.3820   24.3680 C.2   177  GLY177      0.2612
    161  O        157.2620   32.6460   23.4740 O.2   177  GLY177     -0.2717
    162  N        158.8620   33.9650   24.3150 N.am  178  THR178     -0.1952
    163  CA       159.7240   33.7620   23.1640 C.3   178  THR178      0.1897
    164  C        160.2670   32.3440   23.0650 C.2   178  THR178      0.2313
    165  O        160.2180   31.7270   22.0010 O.2   178  THR178     -0.2863
    166  CB       160.9180   34.7290   23.1830 C.3   178  THR178      0.1794
    167  OG1      160.4360   36.0740   23.2620 O.3   178  THR178     -0.2208
    168  CG2      161.7570   34.5670   21.9140 C.3   178  THR178      0.0378
    169  N        167.1420   33.1600    1.9260 N.3   778  PHE778     -0.1241
    170  CA       166.5310   32.9450    3.2270 C.3   778  PHE778      0.1605
    171  C        166.4900   31.4430    3.5200 C.2   778  PHE778      0.2264
    172  O        166.9290   30.9920    4.5740 O.2   778  PHE778     -0.2867
    173  CB       165.1090   33.5220    3.2300 C.3   778  PHE778      0.0534
    174  CG       164.3970   33.3910    4.5470 C.ar  778  PHE778     -0.0203
    175  CD1      164.5720   34.3400    5.5490 C.ar  778  PHE778     -0.0042
    176  CD2      163.5540   32.3020    4.7910 C.ar  778  PHE778     -0.0042
    177  CE1      163.9160   34.2080    6.7800 C.ar  778  PHE778     -0.0003
    178  CE2      162.8950   32.1600    6.0150 C.ar  778  PHE778     -0.0003
    179  CZ       163.0750   33.1130    7.0110 C.ar  778  PHE778     -0.0000
    180  N        169.2560   30.6020    6.3320 N.3   782  ARG782     -0.1245
    181  CA       168.5350   30.4990    7.5820 C.3   782  ARG782      0.1563
    182  C        167.8720   29.1440    7.8260 C.2   782  ARG782      0.2260
    183  O        168.2890   28.4030    8.7100 O.2   782  ARG782     -0.2867
    184  CB       167.4910   31.6160    7.7050 C.3   782  ARG782      0.0307
    185  CG       166.5300   31.3790    8.8560 C.3   782  ARG782      0.0489
    186  CD       165.7390   32.6070    9.2370 C.3   782  ARG782      0.2205
    187  NE       164.5560   32.2140    9.9920 N.pl3 782  ARG782     -0.0865
    188  CZ       163.7030   33.0620   10.5560 C.cat 782  ARG782      0.5346
    189  NH1      163.8960   34.3740   10.4670 N.pl3 782  ARG782      0.1354
    190  NH2      162.6380   32.5920   11.1890 N.pl3 782  ARG782      0.1354
    191  N        168.8760   34.4460   12.9200 N.3   789  TYR789     -0.1227
    192  CA       167.5050   34.9150   12.7650 C.3   789  TYR789      0.1736
    193  C        167.5210   36.0000   11.6940 C.2   789  TYR789      0.2595
    194  O        166.6700   36.0420   10.7990 O.2   789  TYR789     -0.2718
    195  CB       167.0030   35.5020   14.0880 C.3   789  TYR789      0.0548
    196  CG       165.6050   36.0700   14.0150 C.ar  789  TYR789     -0.0200
    197  CD1      164.4980   35.2300   13.9360 C.ar  789  TYR789     -0.0009
    198  CD2      165.3900   37.4470   13.9880 C.ar  789  TYR789     -0.0009
    199  CE1      163.2100   35.7430   13.8270 C.ar  789  TYR789      0.0417
    200  CE2      164.0980   37.9750   13.8780 C.ar  789  TYR789      0.0417
    201  CZ       163.0150   37.1130   13.7950 C.ar  789  TYR789      0.1957
    202  OH       161.7380   37.6080   13.6620 O.3   789  TYR789     -0.2866
    203  N        168.5040   36.8840   11.7930 N.am  790  ILE790     -0.1966
    204  CA       168.6290   37.9560   10.8280 C.3   790  ILE790      0.1727
    205  C        169.5040   37.5410    9.6520 C.2   790  ILE790      0.2616
    206  O        170.7290   37.4790    9.7530 O.2   790  ILE790     -0.2715
    207  CB       169.1970   39.2260   11.4870 C.3   790  ILE790      0.0290
    208  CG1      168.2140   39.7270   12.5460 C.3   790  ILE790      0.0022
    209  CG2      169.4350   40.3070   10.4350 C.3   790  ILE790      0.0023
    210  CD1      168.7080   40.9290   13.3160 C.3   790  ILE790      0.0001
    211  N        168.8470   37.2310    8.5430 N.am  791  VAL791     -0.1963
    212  CA       169.5050   36.8370    7.3060 C.3   791  VAL791      0.1727
    213  C        168.8050   37.6630    6.2510 C.2   791  VAL791      0.2616
    214  O        167.6050   37.4990    6.0240 O.2   791  VAL791     -0.2715
    215  CB       169.3070   35.3410    7.0020 C.3   791  VAL791      0.0290
    216  CG1      169.7590   35.0350    5.5840 C.3   791  VAL791      0.0023
    217  CG2      170.0990   34.5060    8.0040 C.3   791  VAL791      0.0023
    218  N        169.5590   38.5490    5.6100 N.am  792  PHE792     -0.1974
    219  CA       168.9910   39.4510    4.6220 C.3   792  PHE792      0.1639
    220  C        169.8370   39.5850    3.3710 C.2   792  PHE792      0.2290
    221  O        171.0660   39.5370    3.4260 O.2   792  PHE792     -0.2864
    222  CB       168.8140   40.8380    5.2670 C.3   792  PHE792      0.0560
    223  CG       168.4080   41.9220    4.3000 C.ar  792  PHE792     -0.0200
    224  CD1      167.0640   42.1400    3.9970 C.ar  792  PHE792     -0.0042
    225  CD2      169.3750   42.7200    3.6810 C.ar  792  PHE792     -0.0042
    226  CE1      166.6850   43.1460    3.0870 C.ar  792  PHE792     -0.0003
    227  CE2      169.0100   43.7210    2.7750 C.ar  792  PHE792     -0.0003
    228  CZ       167.6640   43.9340    2.4770 C.ar  792  PHE792     -0.0000
@<TRIPOS>BOND
     1   169   170    1
     2   228   227   ar
     3   228   226   ar
     4   227   225   ar
     5   226   224   ar
     6   170   173    1
     7   170   171    1
     8   173   174    1
     9   220   221    2
    10   220   219    1
    11    47    48    1
    12   171   172    2
    13   225   223   ar
    14   224   223   ar
    15    51    48    1
    16    51    52    1
    17   223   222    1
    18    48    49    1
    19   174   176   ar
    20   174   175   ar
    21   219   222    1
    22   219   218    1
    23   176   178   ar
    24   175   177   ar
    25   216   215    1
    26   218   213   am
    27    39    38    2
    28    49    50    2
    29    49    53   am
    30    92    93    2
    31    92    91    1
    32   178   179   ar
    33   214   213    2
    34   213   212    1
    35   180   181    1
    36   177   179   ar
    37    53    54    1
    38    38    37    1
    39   215   212    1
    40   215   217    1
    41    91    94    1
    42    91    90    1
    43    43    45   ar
    44    43    41   ar
    45   212   211    1
    46    45    46   ar
    47    96    98   ar
    48    96    95   ar
    49    94    95    1
    50    37    40    1
    51    37    36    1
    52   181   184    1
    53   181   182    1
    54    40    41    1
    55   184   185    1
    56   182   183    2
    57    98   100   ar
    58    41    42   ar
    59    95    97   ar
    60    54    57    1
    61    54    55    1
    62    57    58    1
    63   211   205   am
    64    46    44   ar
    65    56    55    2
    66   185   186    1
    67    60    58   am
    68    55    61   am
    69   186   187    1
    70    42    44   ar
    71    58    59    2
    72   100   101    1
    73   100    99   ar
    74    97    99   ar
    75   205   206    2
    76   205   204    1
    77   187   188    2
    78   209   207    1
    79    61    62    1
    80   189   188    1
    81   188   190    1
    82   194   193    2
    83   204   207    1
    84   204   203    1
    85   110   108   ar
    86    29    28    2
    87    65    62    1
    88   207   208    1
    89    62    63    1
    90   193   203   am
    91   193   192    1
    92   109   108   ar
    93   108   107    1
    94    28    27    1
    95    20    19    2
    96   208   210    1
    97   192   191    1
    98   192   195    1
    99    63    64    2
   100    63    66   am
   101   106   107    1
   102   106   103    1
   103   102   103    1
   104    27    30    1
   105    27    26    1
   106   103   104    1
   107    19    26   am
   108    19    18    1
   109    32    34   ar
   110    32    31   ar
   111   202   201    1
   112    24    23    2
   113   201   199   ar
   114   201   200   ar
   115    66    67    1
   116   199   197   ar
   117   200   198   ar
   118    30    31    1
   119   197   196   ar
   120   198   196   ar
   121   196   195    1
   122    74    72   ar
   123    74    76   ar
   124    72    71   ar
   125    34    35   ar
   126    31    33   ar
   127    22    23    1
   128    22    21    1
   129    23    25   am
   130    18    21    1
   131    18    17    1
   132   104   105    2
   133    67    70    1
   134    67    68    1
   135    35    33   ar
   136    76    75   ar
   137    71    70    1
   138    71    73   ar
   139    69    68    2
   140    68    77   am
   141    73    75   ar
   142   119   117   ar
   143    10     9    2
   144   117   118   ar
   145   117   116    1
   146    77    78    1
   147    16    14   ar
   148    16    15   ar
   149   115   116    1
   150   115   112    1
   151   111   112    1
   152    14    12   ar
   153   112   113    1
   154    82    81    1
   155    15    13   ar
   156     9     8    1
   157    78    81    1
   158    78    79    1
   159    12    13   ar
   160    12    11    1
   161    81    83    1
   162     8    11    1
   163     8     7    1
   164   113   114    2
   165    79    80    2
   166    79    84   am
   167    84    85    1
   168   126   125    2
   169    89    88    1
   170    88    85    1
   171   127   125   am
   172   125   124    1
   173   144   146   ar
   174   144   142   ar
   175   120   121    1
   176    85    86    1
   177   141   142   ar
   178   141   139   ar
   179   168   166    1
   180   146   145   ar
   181   165   164    2
   182   142   140   ar
   183    87    86    2
   184   121   124    1
   185   121   122    1
   186   139   138   ar
   187   164   163    1
   188   163   166    1
   189   163   162    1
   190   166   167    1
   191   145   143   ar
   192   140   138   ar
   193   140   143   ar
   194   161   160    2
   195     1     2    1
   196   122   123    2
   197   138   137    1
   198   162   160   am
   199   160   159    1
   200     5     2    1
   201     5     6    1
   202     2     3    1
   203   132   129    1
   204   137   134    1
   205   159   158    1
   206   133   134    1
   207   133   130   am
   208     3     4    2
   209   134   135    1
   210   129   128    1
   211   129   130    1
   212   130   131    2
   213   157   155   ar
   214   157   156   ar
   215   155   153   ar
   216   156   154   ar
   217   153   152   ar
   218   154   152   ar
   219   152   151    1
   220   135   136    2
   221   151   148    1
   222   148   147    1
   223   148   149    1
   224   149   150    2
